<?xml version="1.0" encoding="UTF-8"?>

<!-- generated on 2023-10-04 18:11:08 by Eclipse SUMO netedit Version 1.10.0
<configuration xmlns:xsi="http://www.w3.org/2001/XMLSchema-instance" xsi:noNamespaceSchemaLocation="http://sumo.dlr.de/xsd/netconvertConfiguration.xsd">

    <input>
        <sumo-net-file value="C:\Users\lzy\Desktop\networks\grid5x5\grid5x5.net.xml"/>
    </input>

    <output>
        <output-file value="C:\Users\lzy\Desktop\networks\grid5x5\grid5x5.net.xml"/>
    </output>

    <processing>
        <geometry.min-radius.fix.railways value="false"/>
        <geometry.max-grade.fix value="false"/>
        <offset.disable-normalization value="true"/>
        <lefthand value="false"/>
    </processing>

    <junctions>
        <no-turnarounds value="true"/>
        <junctions.corner-detail value="5"/>
        <junctions.limit-turn-speed value="5.5"/>
        <rectangular-lane-cut value="false"/>
    </junctions>

    <pedestrian>
        <walkingareas value="false"/>
    </pedestrian>

    <report>
        <aggregate-warnings value="5"/>
    </report>

</configuration>
-->

<net version="1.9" junctionCornerDetail="5" limitTurnSpeed="5.50" xmlns:xsi="http://www.w3.org/2001/XMLSchema-instance" xsi:noNamespaceSchemaLocation="http://sumo.dlr.de/xsd/net_file.xsd">

    <location netOffset="0.00,0.00" convBoundary="-230.00,-230.00,230.00,230.00" origBoundary="-10000000000.00,-10000000000.00,10000000000.00,10000000000.00" projParameter="!"/>

    <edge id=":gneJ0_0" function="internal">
        <lane id=":gneJ0_0_0" index="0" speed="6.51" length="9.03" shape="-8.00,13.60 -8.35,11.15 -9.40,9.40 -11.15,8.35 -13.60,8.00"/>
    </edge>
    <edge id=":gneJ0_1" function="internal">
        <lane id=":gneJ0_1_0" index="0" speed="13.89" length="27.20" shape="-8.00,13.60 -8.00,-13.60"/>
        <lane id=":gneJ0_1_1" index="1" speed="13.89" length="27.20" shape="-4.80,13.60 -4.80,-13.60"/>
        <lane id=":gneJ0_1_2" index="2" speed="13.89" length="27.20" shape="-1.60,13.60 -1.60,-13.60"/>
    </edge>
    <edge id=":gneJ0_4" function="internal">
        <lane id=":gneJ0_4_0" index="0" speed="10.36" length="24.51" shape="-1.60,13.60 -0.65,6.95 2.20,2.20 6.95,-0.65 13.60,-1.60"/>
    </edge>
    <edge id=":gneJ0_5" function="internal">
        <lane id=":gneJ0_5_0" index="0" speed="6.51" length="9.03" shape="13.60,8.00 11.15,8.35 9.40,9.40 8.35,11.15 8.00,13.60"/>
    </edge>
    <edge id=":gneJ0_6" function="internal">
        <lane id=":gneJ0_6_0" index="0" speed="13.89" length="27.20" shape="13.60,8.00 -13.60,8.00"/>
        <lane id=":gneJ0_6_1" index="1" speed="13.89" length="27.20" shape="13.60,4.80 -13.60,4.80"/>
        <lane id=":gneJ0_6_2" index="2" speed="13.89" length="27.20" shape="13.60,1.60 -13.60,1.60"/>
    </edge>
    <edge id=":gneJ0_9" function="internal">
        <lane id=":gneJ0_9_0" index="0" speed="10.36" length="24.51" shape="13.60,1.60 6.95,0.65 2.20,-2.20 -0.65,-6.95 -1.60,-13.60"/>
    </edge>
    <edge id=":gneJ0_10" function="internal">
        <lane id=":gneJ0_10_0" index="0" speed="6.51" length="9.03" shape="8.00,-13.60 8.35,-11.15 9.40,-9.40 11.15,-8.35 13.60,-8.00"/>
    </edge>
    <edge id=":gneJ0_11" function="internal">
        <lane id=":gneJ0_11_0" index="0" speed="13.89" length="27.20" shape="8.00,-13.60 8.00,13.60"/>
        <lane id=":gneJ0_11_1" index="1" speed="13.89" length="27.20" shape="4.80,-13.60 4.80,13.60"/>
        <lane id=":gneJ0_11_2" index="2" speed="13.89" length="27.20" shape="1.60,-13.60 1.60,13.60"/>
    </edge>
    <edge id=":gneJ0_14" function="internal">
        <lane id=":gneJ0_14_0" index="0" speed="10.36" length="24.51" shape="1.60,-13.60 0.65,-6.95 -2.20,-2.20 -6.95,0.65 -13.60,1.60"/>
    </edge>
    <edge id=":gneJ0_15" function="internal">
        <lane id=":gneJ0_15_0" index="0" speed="6.51" length="9.03" shape="-13.60,-8.00 -11.15,-8.35 -9.40,-9.40 -8.35,-11.15 -8.00,-13.60"/>
    </edge>
    <edge id=":gneJ0_16" function="internal">
        <lane id=":gneJ0_16_0" index="0" speed="13.89" length="27.20" shape="-13.60,-8.00 13.60,-8.00"/>
        <lane id=":gneJ0_16_1" index="1" speed="13.89" length="27.20" shape="-13.60,-4.80 13.60,-4.80"/>
        <lane id=":gneJ0_16_2" index="2" speed="13.89" length="27.20" shape="-13.60,-1.60 13.60,-1.60"/>
    </edge>
    <edge id=":gneJ0_19" function="internal">
        <lane id=":gneJ0_19_0" index="0" speed="10.36" length="24.51" shape="-13.60,-1.60 -6.95,-0.65 -2.20,2.20 0.65,6.95 1.60,13.60"/>
    </edge>
    <edge id=":gneJ1_0" function="internal">
        <lane id=":gneJ1_0_0" index="0" speed="6.51" length="9.03" shape="92.00,13.60 91.65,11.15 90.60,9.40 88.85,8.35 86.40,8.00"/>
    </edge>
    <edge id=":gneJ1_1" function="internal">
        <lane id=":gneJ1_1_0" index="0" speed="13.89" length="27.20" shape="92.00,13.60 92.00,-13.60"/>
        <lane id=":gneJ1_1_1" index="1" speed="13.89" length="27.20" shape="95.20,13.60 95.20,-13.60"/>
        <lane id=":gneJ1_1_2" index="2" speed="13.89" length="27.20" shape="98.40,13.60 98.40,-13.60"/>
    </edge>
    <edge id=":gneJ1_4" function="internal">
        <lane id=":gneJ1_4_0" index="0" speed="10.36" length="24.51" shape="98.40,13.60 99.35,6.95 102.20,2.20 106.95,-0.65 113.60,-1.60"/>
    </edge>
    <edge id=":gneJ1_5" function="internal">
        <lane id=":gneJ1_5_0" index="0" speed="6.51" length="9.03" shape="113.60,8.00 111.15,8.35 109.40,9.40 108.35,11.15 108.00,13.60"/>
    </edge>
    <edge id=":gneJ1_6" function="internal">
        <lane id=":gneJ1_6_0" index="0" speed="13.89" length="27.20" shape="113.60,8.00 86.40,8.00"/>
        <lane id=":gneJ1_6_1" index="1" speed="13.89" length="27.20" shape="113.60,4.80 86.40,4.80"/>
        <lane id=":gneJ1_6_2" index="2" speed="13.89" length="27.20" shape="113.60,1.60 86.40,1.60"/>
    </edge>
    <edge id=":gneJ1_9" function="internal">
        <lane id=":gneJ1_9_0" index="0" speed="10.36" length="24.51" shape="113.60,1.60 106.95,0.65 102.20,-2.20 99.35,-6.95 98.40,-13.60"/>
    </edge>
    <edge id=":gneJ1_10" function="internal">
        <lane id=":gneJ1_10_0" index="0" speed="6.51" length="9.03" shape="108.00,-13.60 108.35,-11.15 109.40,-9.40 111.15,-8.35 113.60,-8.00"/>
    </edge>
    <edge id=":gneJ1_11" function="internal">
        <lane id=":gneJ1_11_0" index="0" speed="13.89" length="27.20" shape="108.00,-13.60 108.00,13.60"/>
        <lane id=":gneJ1_11_1" index="1" speed="13.89" length="27.20" shape="104.80,-13.60 104.80,13.60"/>
        <lane id=":gneJ1_11_2" index="2" speed="13.89" length="27.20" shape="101.60,-13.60 101.60,13.60"/>
    </edge>
    <edge id=":gneJ1_14" function="internal">
        <lane id=":gneJ1_14_0" index="0" speed="10.36" length="24.51" shape="101.60,-13.60 100.65,-6.95 97.80,-2.20 93.05,0.65 86.40,1.60"/>
    </edge>
    <edge id=":gneJ1_15" function="internal">
        <lane id=":gneJ1_15_0" index="0" speed="6.51" length="9.03" shape="86.40,-8.00 88.85,-8.35 90.60,-9.40 91.65,-11.15 92.00,-13.60"/>
    </edge>
    <edge id=":gneJ1_16" function="internal">
        <lane id=":gneJ1_16_0" index="0" speed="13.89" length="27.20" shape="86.40,-8.00 113.60,-8.00"/>
        <lane id=":gneJ1_16_1" index="1" speed="13.89" length="27.20" shape="86.40,-4.80 113.60,-4.80"/>
        <lane id=":gneJ1_16_2" index="2" speed="13.89" length="27.20" shape="86.40,-1.60 113.60,-1.60"/>
    </edge>
    <edge id=":gneJ1_19" function="internal">
        <lane id=":gneJ1_19_0" index="0" speed="10.36" length="24.51" shape="86.40,-1.60 93.05,-0.65 97.80,2.20 100.65,6.95 101.60,13.60"/>
    </edge>
    <edge id=":gneJ10_0" function="internal">
        <lane id=":gneJ10_0_0" index="0" speed="6.51" length="9.03" shape="-8.00,-186.40 -8.35,-188.85 -9.40,-190.60 -11.15,-191.65 -13.60,-192.00"/>
    </edge>
    <edge id=":gneJ10_1" function="internal">
        <lane id=":gneJ10_1_0" index="0" speed="13.89" length="27.20" shape="-8.00,-186.40 -8.00,-213.60"/>
        <lane id=":gneJ10_1_1" index="1" speed="13.89" length="27.20" shape="-4.80,-186.40 -4.80,-213.60"/>
        <lane id=":gneJ10_1_2" index="2" speed="13.89" length="27.20" shape="-1.60,-186.40 -1.60,-213.60"/>
    </edge>
    <edge id=":gneJ10_4" function="internal">
        <lane id=":gneJ10_4_0" index="0" speed="10.36" length="24.51" shape="-1.60,-186.40 -0.65,-193.05 2.20,-197.80 6.95,-200.65 13.60,-201.60"/>
    </edge>
    <edge id=":gneJ10_5" function="internal">
        <lane id=":gneJ10_5_0" index="0" speed="6.51" length="9.03" shape="13.60,-192.00 11.15,-191.65 9.40,-190.60 8.35,-188.85 8.00,-186.40"/>
    </edge>
    <edge id=":gneJ10_6" function="internal">
        <lane id=":gneJ10_6_0" index="0" speed="13.89" length="27.20" shape="13.60,-192.00 -13.60,-192.00"/>
        <lane id=":gneJ10_6_1" index="1" speed="13.89" length="27.20" shape="13.60,-195.20 -13.60,-195.20"/>
        <lane id=":gneJ10_6_2" index="2" speed="13.89" length="27.20" shape="13.60,-198.40 -13.60,-198.40"/>
    </edge>
    <edge id=":gneJ10_9" function="internal">
        <lane id=":gneJ10_9_0" index="0" speed="10.36" length="24.51" shape="13.60,-198.40 6.95,-199.35 2.20,-202.20 -0.65,-206.95 -1.60,-213.60"/>
    </edge>
    <edge id=":gneJ10_10" function="internal">
        <lane id=":gneJ10_10_0" index="0" speed="6.51" length="9.03" shape="8.00,-213.60 8.35,-211.15 9.40,-209.40 11.15,-208.35 13.60,-208.00"/>
    </edge>
    <edge id=":gneJ10_11" function="internal">
        <lane id=":gneJ10_11_0" index="0" speed="13.89" length="27.20" shape="8.00,-213.60 8.00,-186.40"/>
        <lane id=":gneJ10_11_1" index="1" speed="13.89" length="27.20" shape="4.80,-213.60 4.80,-186.40"/>
        <lane id=":gneJ10_11_2" index="2" speed="13.89" length="27.20" shape="1.60,-213.60 1.60,-186.40"/>
    </edge>
    <edge id=":gneJ10_14" function="internal">
        <lane id=":gneJ10_14_0" index="0" speed="10.36" length="24.51" shape="1.60,-213.60 0.65,-206.95 -2.20,-202.20 -6.95,-199.35 -13.60,-198.40"/>
    </edge>
    <edge id=":gneJ10_15" function="internal">
        <lane id=":gneJ10_15_0" index="0" speed="6.51" length="9.03" shape="-13.60,-208.00 -11.15,-208.35 -9.40,-209.40 -8.35,-211.15 -8.00,-213.60"/>
    </edge>
    <edge id=":gneJ10_16" function="internal">
        <lane id=":gneJ10_16_0" index="0" speed="13.89" length="27.20" shape="-13.60,-208.00 13.60,-208.00"/>
        <lane id=":gneJ10_16_1" index="1" speed="13.89" length="27.20" shape="-13.60,-204.80 13.60,-204.80"/>
        <lane id=":gneJ10_16_2" index="2" speed="13.89" length="27.20" shape="-13.60,-201.60 13.60,-201.60"/>
    </edge>
    <edge id=":gneJ10_19" function="internal">
        <lane id=":gneJ10_19_0" index="0" speed="10.36" length="24.51" shape="-13.60,-201.60 -6.95,-200.65 -2.20,-197.80 0.65,-193.05 1.60,-186.40"/>
    </edge>
    <edge id=":gneJ11_0" function="internal">
        <lane id=":gneJ11_0_0" index="0" speed="6.51" length="9.03" shape="92.00,-86.40 91.65,-88.85 90.60,-90.60 88.85,-91.65 86.40,-92.00"/>
    </edge>
    <edge id=":gneJ11_1" function="internal">
        <lane id=":gneJ11_1_0" index="0" speed="13.89" length="27.20" shape="92.00,-86.40 92.00,-113.60"/>
        <lane id=":gneJ11_1_1" index="1" speed="13.89" length="27.20" shape="95.20,-86.40 95.20,-113.60"/>
        <lane id=":gneJ11_1_2" index="2" speed="13.89" length="27.20" shape="98.40,-86.40 98.40,-113.60"/>
    </edge>
    <edge id=":gneJ11_4" function="internal">
        <lane id=":gneJ11_4_0" index="0" speed="10.36" length="24.51" shape="98.40,-86.40 99.35,-93.05 102.20,-97.80 106.95,-100.65 113.60,-101.60"/>
    </edge>
    <edge id=":gneJ11_5" function="internal">
        <lane id=":gneJ11_5_0" index="0" speed="6.51" length="9.03" shape="113.60,-92.00 111.15,-91.65 109.40,-90.60 108.35,-88.85 108.00,-86.40"/>
    </edge>
    <edge id=":gneJ11_6" function="internal">
        <lane id=":gneJ11_6_0" index="0" speed="13.89" length="27.20" shape="113.60,-92.00 86.40,-92.00"/>
        <lane id=":gneJ11_6_1" index="1" speed="13.89" length="27.20" shape="113.60,-95.20 86.40,-95.20"/>
        <lane id=":gneJ11_6_2" index="2" speed="13.89" length="27.20" shape="113.60,-98.40 86.40,-98.40"/>
    </edge>
    <edge id=":gneJ11_9" function="internal">
        <lane id=":gneJ11_9_0" index="0" speed="10.36" length="24.51" shape="113.60,-98.40 106.95,-99.35 102.20,-102.20 99.35,-106.95 98.40,-113.60"/>
    </edge>
    <edge id=":gneJ11_10" function="internal">
        <lane id=":gneJ11_10_0" index="0" speed="6.51" length="9.03" shape="108.00,-113.60 108.35,-111.15 109.40,-109.40 111.15,-108.35 113.60,-108.00"/>
    </edge>
    <edge id=":gneJ11_11" function="internal">
        <lane id=":gneJ11_11_0" index="0" speed="13.89" length="27.20" shape="108.00,-113.60 108.00,-86.40"/>
        <lane id=":gneJ11_11_1" index="1" speed="13.89" length="27.20" shape="104.80,-113.60 104.80,-86.40"/>
        <lane id=":gneJ11_11_2" index="2" speed="13.89" length="27.20" shape="101.60,-113.60 101.60,-86.40"/>
    </edge>
    <edge id=":gneJ11_14" function="internal">
        <lane id=":gneJ11_14_0" index="0" speed="10.36" length="24.51" shape="101.60,-113.60 100.65,-106.95 97.80,-102.20 93.05,-99.35 86.40,-98.40"/>
    </edge>
    <edge id=":gneJ11_15" function="internal">
        <lane id=":gneJ11_15_0" index="0" speed="6.51" length="9.03" shape="86.40,-108.00 88.85,-108.35 90.60,-109.40 91.65,-111.15 92.00,-113.60"/>
    </edge>
    <edge id=":gneJ11_16" function="internal">
        <lane id=":gneJ11_16_0" index="0" speed="13.89" length="27.20" shape="86.40,-108.00 113.60,-108.00"/>
        <lane id=":gneJ11_16_1" index="1" speed="13.89" length="27.20" shape="86.40,-104.80 113.60,-104.80"/>
        <lane id=":gneJ11_16_2" index="2" speed="13.89" length="27.20" shape="86.40,-101.60 113.60,-101.60"/>
    </edge>
    <edge id=":gneJ11_19" function="internal">
        <lane id=":gneJ11_19_0" index="0" speed="10.36" length="24.51" shape="86.40,-101.60 93.05,-100.65 97.80,-97.80 100.65,-93.05 101.60,-86.40"/>
    </edge>
    <edge id=":gneJ12_0" function="internal">
        <lane id=":gneJ12_0_0" index="0" speed="6.51" length="9.03" shape="92.00,-186.40 91.65,-188.85 90.60,-190.60 88.85,-191.65 86.40,-192.00"/>
    </edge>
    <edge id=":gneJ12_1" function="internal">
        <lane id=":gneJ12_1_0" index="0" speed="13.89" length="27.20" shape="92.00,-186.40 92.00,-213.60"/>
        <lane id=":gneJ12_1_1" index="1" speed="13.89" length="27.20" shape="95.20,-186.40 95.20,-213.60"/>
        <lane id=":gneJ12_1_2" index="2" speed="13.89" length="27.20" shape="98.40,-186.40 98.40,-213.60"/>
    </edge>
    <edge id=":gneJ12_4" function="internal">
        <lane id=":gneJ12_4_0" index="0" speed="10.36" length="24.51" shape="98.40,-186.40 99.35,-193.05 102.20,-197.80 106.95,-200.65 113.60,-201.60"/>
    </edge>
    <edge id=":gneJ12_5" function="internal">
        <lane id=":gneJ12_5_0" index="0" speed="6.51" length="9.03" shape="113.60,-192.00 111.15,-191.65 109.40,-190.60 108.35,-188.85 108.00,-186.40"/>
    </edge>
    <edge id=":gneJ12_6" function="internal">
        <lane id=":gneJ12_6_0" index="0" speed="13.89" length="27.20" shape="113.60,-192.00 86.40,-192.00"/>
        <lane id=":gneJ12_6_1" index="1" speed="13.89" length="27.20" shape="113.60,-195.20 86.40,-195.20"/>
        <lane id=":gneJ12_6_2" index="2" speed="13.89" length="27.20" shape="113.60,-198.40 86.40,-198.40"/>
    </edge>
    <edge id=":gneJ12_9" function="internal">
        <lane id=":gneJ12_9_0" index="0" speed="10.36" length="24.51" shape="113.60,-198.40 106.95,-199.35 102.20,-202.20 99.35,-206.95 98.40,-213.60"/>
    </edge>
    <edge id=":gneJ12_10" function="internal">
        <lane id=":gneJ12_10_0" index="0" speed="6.51" length="9.03" shape="108.00,-213.60 108.35,-211.15 109.40,-209.40 111.15,-208.35 113.60,-208.00"/>
    </edge>
    <edge id=":gneJ12_11" function="internal">
        <lane id=":gneJ12_11_0" index="0" speed="13.89" length="27.20" shape="108.00,-213.60 108.00,-186.40"/>
        <lane id=":gneJ12_11_1" index="1" speed="13.89" length="27.20" shape="104.80,-213.60 104.80,-186.40"/>
        <lane id=":gneJ12_11_2" index="2" speed="13.89" length="27.20" shape="101.60,-213.60 101.60,-186.40"/>
    </edge>
    <edge id=":gneJ12_14" function="internal">
        <lane id=":gneJ12_14_0" index="0" speed="10.36" length="24.51" shape="101.60,-213.60 100.65,-206.95 97.80,-202.20 93.05,-199.35 86.40,-198.40"/>
    </edge>
    <edge id=":gneJ12_15" function="internal">
        <lane id=":gneJ12_15_0" index="0" speed="6.51" length="9.03" shape="86.40,-208.00 88.85,-208.35 90.60,-209.40 91.65,-211.15 92.00,-213.60"/>
    </edge>
    <edge id=":gneJ12_16" function="internal">
        <lane id=":gneJ12_16_0" index="0" speed="13.89" length="27.20" shape="86.40,-208.00 113.60,-208.00"/>
        <lane id=":gneJ12_16_1" index="1" speed="13.89" length="27.20" shape="86.40,-204.80 113.60,-204.80"/>
        <lane id=":gneJ12_16_2" index="2" speed="13.89" length="27.20" shape="86.40,-201.60 113.60,-201.60"/>
    </edge>
    <edge id=":gneJ12_19" function="internal">
        <lane id=":gneJ12_19_0" index="0" speed="10.36" length="24.51" shape="86.40,-201.60 93.05,-200.65 97.80,-197.80 100.65,-193.05 101.60,-186.40"/>
    </edge>
    <edge id=":gneJ13_0" function="internal">
        <lane id=":gneJ13_0_0" index="0" speed="6.51" length="9.03" shape="192.00,-86.40 191.65,-88.85 190.60,-90.60 188.85,-91.65 186.40,-92.00"/>
    </edge>
    <edge id=":gneJ13_1" function="internal">
        <lane id=":gneJ13_1_0" index="0" speed="13.89" length="27.20" shape="192.00,-86.40 192.00,-113.60"/>
        <lane id=":gneJ13_1_1" index="1" speed="13.89" length="27.20" shape="195.20,-86.40 195.20,-113.60"/>
        <lane id=":gneJ13_1_2" index="2" speed="13.89" length="27.20" shape="198.40,-86.40 198.40,-113.60"/>
    </edge>
    <edge id=":gneJ13_4" function="internal">
        <lane id=":gneJ13_4_0" index="0" speed="10.36" length="24.51" shape="198.40,-86.40 199.35,-93.05 202.20,-97.80 206.95,-100.65 213.60,-101.60"/>
    </edge>
    <edge id=":gneJ13_5" function="internal">
        <lane id=":gneJ13_5_0" index="0" speed="6.51" length="9.03" shape="213.60,-92.00 211.15,-91.65 209.40,-90.60 208.35,-88.85 208.00,-86.40"/>
    </edge>
    <edge id=":gneJ13_6" function="internal">
        <lane id=":gneJ13_6_0" index="0" speed="13.89" length="27.20" shape="213.60,-92.00 186.40,-92.00"/>
        <lane id=":gneJ13_6_1" index="1" speed="13.89" length="27.20" shape="213.60,-95.20 186.40,-95.20"/>
        <lane id=":gneJ13_6_2" index="2" speed="13.89" length="27.20" shape="213.60,-98.40 186.40,-98.40"/>
    </edge>
    <edge id=":gneJ13_9" function="internal">
        <lane id=":gneJ13_9_0" index="0" speed="10.36" length="24.51" shape="213.60,-98.40 206.95,-99.35 202.20,-102.20 199.35,-106.95 198.40,-113.60"/>
    </edge>
    <edge id=":gneJ13_10" function="internal">
        <lane id=":gneJ13_10_0" index="0" speed="6.51" length="9.03" shape="208.00,-113.60 208.35,-111.15 209.40,-109.40 211.15,-108.35 213.60,-108.00"/>
    </edge>
    <edge id=":gneJ13_11" function="internal">
        <lane id=":gneJ13_11_0" index="0" speed="13.89" length="27.20" shape="208.00,-113.60 208.00,-86.40"/>
        <lane id=":gneJ13_11_1" index="1" speed="13.89" length="27.20" shape="204.80,-113.60 204.80,-86.40"/>
        <lane id=":gneJ13_11_2" index="2" speed="13.89" length="27.20" shape="201.60,-113.60 201.60,-86.40"/>
    </edge>
    <edge id=":gneJ13_14" function="internal">
        <lane id=":gneJ13_14_0" index="0" speed="10.36" length="24.51" shape="201.60,-113.60 200.65,-106.95 197.80,-102.20 193.05,-99.35 186.40,-98.40"/>
    </edge>
    <edge id=":gneJ13_15" function="internal">
        <lane id=":gneJ13_15_0" index="0" speed="6.51" length="9.03" shape="186.40,-108.00 188.85,-108.35 190.60,-109.40 191.65,-111.15 192.00,-113.60"/>
    </edge>
    <edge id=":gneJ13_16" function="internal">
        <lane id=":gneJ13_16_0" index="0" speed="13.89" length="27.20" shape="186.40,-108.00 213.60,-108.00"/>
        <lane id=":gneJ13_16_1" index="1" speed="13.89" length="27.20" shape="186.40,-104.80 213.60,-104.80"/>
        <lane id=":gneJ13_16_2" index="2" speed="13.89" length="27.20" shape="186.40,-101.60 213.60,-101.60"/>
    </edge>
    <edge id=":gneJ13_19" function="internal">
        <lane id=":gneJ13_19_0" index="0" speed="10.36" length="24.51" shape="186.40,-101.60 193.05,-100.65 197.80,-97.80 200.65,-93.05 201.60,-86.40"/>
    </edge>
    <edge id=":gneJ14_0" function="internal">
        <lane id=":gneJ14_0_0" index="0" speed="6.51" length="9.03" shape="192.00,-186.40 191.65,-188.85 190.60,-190.60 188.85,-191.65 186.40,-192.00"/>
    </edge>
    <edge id=":gneJ14_1" function="internal">
        <lane id=":gneJ14_1_0" index="0" speed="13.89" length="27.20" shape="192.00,-186.40 192.00,-213.60"/>
        <lane id=":gneJ14_1_1" index="1" speed="13.89" length="27.20" shape="195.20,-186.40 195.20,-213.60"/>
        <lane id=":gneJ14_1_2" index="2" speed="13.89" length="27.20" shape="198.40,-186.40 198.40,-213.60"/>
    </edge>
    <edge id=":gneJ14_4" function="internal">
        <lane id=":gneJ14_4_0" index="0" speed="10.36" length="24.51" shape="198.40,-186.40 199.35,-193.05 202.20,-197.80 206.95,-200.65 213.60,-201.60"/>
    </edge>
    <edge id=":gneJ14_5" function="internal">
        <lane id=":gneJ14_5_0" index="0" speed="6.51" length="9.03" shape="213.60,-192.00 211.15,-191.65 209.40,-190.60 208.35,-188.85 208.00,-186.40"/>
    </edge>
    <edge id=":gneJ14_6" function="internal">
        <lane id=":gneJ14_6_0" index="0" speed="13.89" length="27.20" shape="213.60,-192.00 186.40,-192.00"/>
        <lane id=":gneJ14_6_1" index="1" speed="13.89" length="27.20" shape="213.60,-195.20 186.40,-195.20"/>
        <lane id=":gneJ14_6_2" index="2" speed="13.89" length="27.20" shape="213.60,-198.40 186.40,-198.40"/>
    </edge>
    <edge id=":gneJ14_9" function="internal">
        <lane id=":gneJ14_9_0" index="0" speed="10.36" length="24.51" shape="213.60,-198.40 206.95,-199.35 202.20,-202.20 199.35,-206.95 198.40,-213.60"/>
    </edge>
    <edge id=":gneJ14_10" function="internal">
        <lane id=":gneJ14_10_0" index="0" speed="6.51" length="9.03" shape="208.00,-213.60 208.35,-211.15 209.40,-209.40 211.15,-208.35 213.60,-208.00"/>
    </edge>
    <edge id=":gneJ14_11" function="internal">
        <lane id=":gneJ14_11_0" index="0" speed="13.89" length="27.20" shape="208.00,-213.60 208.00,-186.40"/>
        <lane id=":gneJ14_11_1" index="1" speed="13.89" length="27.20" shape="204.80,-213.60 204.80,-186.40"/>
        <lane id=":gneJ14_11_2" index="2" speed="13.89" length="27.20" shape="201.60,-213.60 201.60,-186.40"/>
    </edge>
    <edge id=":gneJ14_14" function="internal">
        <lane id=":gneJ14_14_0" index="0" speed="10.36" length="24.51" shape="201.60,-213.60 200.65,-206.95 197.80,-202.20 193.05,-199.35 186.40,-198.40"/>
    </edge>
    <edge id=":gneJ14_15" function="internal">
        <lane id=":gneJ14_15_0" index="0" speed="6.51" length="9.03" shape="186.40,-208.00 188.85,-208.35 190.60,-209.40 191.65,-211.15 192.00,-213.60"/>
    </edge>
    <edge id=":gneJ14_16" function="internal">
        <lane id=":gneJ14_16_0" index="0" speed="13.89" length="27.20" shape="186.40,-208.00 213.60,-208.00"/>
        <lane id=":gneJ14_16_1" index="1" speed="13.89" length="27.20" shape="186.40,-204.80 213.60,-204.80"/>
        <lane id=":gneJ14_16_2" index="2" speed="13.89" length="27.20" shape="186.40,-201.60 213.60,-201.60"/>
    </edge>
    <edge id=":gneJ14_19" function="internal">
        <lane id=":gneJ14_19_0" index="0" speed="10.36" length="24.51" shape="186.40,-201.60 193.05,-200.65 197.80,-197.80 200.65,-193.05 201.60,-186.40"/>
    </edge>
    <edge id=":gneJ15_0" function="internal">
        <lane id=":gneJ15_0_0" index="0" speed="6.51" length="9.03" shape="92.00,213.60 91.65,211.15 90.60,209.40 88.85,208.35 86.40,208.00"/>
    </edge>
    <edge id=":gneJ15_1" function="internal">
        <lane id=":gneJ15_1_0" index="0" speed="13.89" length="27.20" shape="92.00,213.60 92.00,186.40"/>
        <lane id=":gneJ15_1_1" index="1" speed="13.89" length="27.20" shape="95.20,213.60 95.20,186.40"/>
        <lane id=":gneJ15_1_2" index="2" speed="13.89" length="27.20" shape="98.40,213.60 98.40,186.40"/>
    </edge>
    <edge id=":gneJ15_4" function="internal">
        <lane id=":gneJ15_4_0" index="0" speed="10.36" length="24.51" shape="98.40,213.60 99.35,206.95 102.20,202.20 106.95,199.35 113.60,198.40"/>
    </edge>
    <edge id=":gneJ15_5" function="internal">
        <lane id=":gneJ15_5_0" index="0" speed="6.51" length="9.03" shape="113.60,208.00 111.15,208.35 109.40,209.40 108.35,211.15 108.00,213.60"/>
    </edge>
    <edge id=":gneJ15_6" function="internal">
        <lane id=":gneJ15_6_0" index="0" speed="13.89" length="27.20" shape="113.60,208.00 86.40,208.00"/>
        <lane id=":gneJ15_6_1" index="1" speed="13.89" length="27.20" shape="113.60,204.80 86.40,204.80"/>
        <lane id=":gneJ15_6_2" index="2" speed="13.89" length="27.20" shape="113.60,201.60 86.40,201.60"/>
    </edge>
    <edge id=":gneJ15_9" function="internal">
        <lane id=":gneJ15_9_0" index="0" speed="10.36" length="24.51" shape="113.60,201.60 106.95,200.65 102.20,197.80 99.35,193.05 98.40,186.40"/>
    </edge>
    <edge id=":gneJ15_10" function="internal">
        <lane id=":gneJ15_10_0" index="0" speed="6.51" length="9.03" shape="108.00,186.40 108.35,188.85 109.40,190.60 111.15,191.65 113.60,192.00"/>
    </edge>
    <edge id=":gneJ15_11" function="internal">
        <lane id=":gneJ15_11_0" index="0" speed="13.89" length="27.20" shape="108.00,186.40 108.00,213.60"/>
        <lane id=":gneJ15_11_1" index="1" speed="13.89" length="27.20" shape="104.80,186.40 104.80,213.60"/>
        <lane id=":gneJ15_11_2" index="2" speed="13.89" length="27.20" shape="101.60,186.40 101.60,213.60"/>
    </edge>
    <edge id=":gneJ15_14" function="internal">
        <lane id=":gneJ15_14_0" index="0" speed="10.36" length="24.51" shape="101.60,186.40 100.65,193.05 97.80,197.80 93.05,200.65 86.40,201.60"/>
    </edge>
    <edge id=":gneJ15_15" function="internal">
        <lane id=":gneJ15_15_0" index="0" speed="6.51" length="9.03" shape="86.40,192.00 88.85,191.65 90.60,190.60 91.65,188.85 92.00,186.40"/>
    </edge>
    <edge id=":gneJ15_16" function="internal">
        <lane id=":gneJ15_16_0" index="0" speed="13.89" length="27.20" shape="86.40,192.00 113.60,192.00"/>
        <lane id=":gneJ15_16_1" index="1" speed="13.89" length="27.20" shape="86.40,195.20 113.60,195.20"/>
        <lane id=":gneJ15_16_2" index="2" speed="13.89" length="27.20" shape="86.40,198.40 113.60,198.40"/>
    </edge>
    <edge id=":gneJ15_19" function="internal">
        <lane id=":gneJ15_19_0" index="0" speed="10.36" length="24.51" shape="86.40,198.40 93.05,199.35 97.80,202.20 100.65,206.95 101.60,213.60"/>
    </edge>
    <edge id=":gneJ16_0" function="internal">
        <lane id=":gneJ16_0_0" index="0" speed="6.51" length="9.03" shape="192.00,213.60 191.65,211.15 190.60,209.40 188.85,208.35 186.40,208.00"/>
    </edge>
    <edge id=":gneJ16_1" function="internal">
        <lane id=":gneJ16_1_0" index="0" speed="13.89" length="27.20" shape="192.00,213.60 192.00,186.40"/>
        <lane id=":gneJ16_1_1" index="1" speed="13.89" length="27.20" shape="195.20,213.60 195.20,186.40"/>
        <lane id=":gneJ16_1_2" index="2" speed="13.89" length="27.20" shape="198.40,213.60 198.40,186.40"/>
    </edge>
    <edge id=":gneJ16_4" function="internal">
        <lane id=":gneJ16_4_0" index="0" speed="10.36" length="24.51" shape="198.40,213.60 199.35,206.95 202.20,202.20 206.95,199.35 213.60,198.40"/>
    </edge>
    <edge id=":gneJ16_5" function="internal">
        <lane id=":gneJ16_5_0" index="0" speed="6.51" length="9.03" shape="213.60,208.00 211.15,208.35 209.40,209.40 208.35,211.15 208.00,213.60"/>
    </edge>
    <edge id=":gneJ16_6" function="internal">
        <lane id=":gneJ16_6_0" index="0" speed="13.89" length="27.20" shape="213.60,208.00 186.40,208.00"/>
        <lane id=":gneJ16_6_1" index="1" speed="13.89" length="27.20" shape="213.60,204.80 186.40,204.80"/>
        <lane id=":gneJ16_6_2" index="2" speed="13.89" length="27.20" shape="213.60,201.60 186.40,201.60"/>
    </edge>
    <edge id=":gneJ16_9" function="internal">
        <lane id=":gneJ16_9_0" index="0" speed="10.36" length="24.51" shape="213.60,201.60 206.95,200.65 202.20,197.80 199.35,193.05 198.40,186.40"/>
    </edge>
    <edge id=":gneJ16_10" function="internal">
        <lane id=":gneJ16_10_0" index="0" speed="6.51" length="9.03" shape="208.00,186.40 208.35,188.85 209.40,190.60 211.15,191.65 213.60,192.00"/>
    </edge>
    <edge id=":gneJ16_11" function="internal">
        <lane id=":gneJ16_11_0" index="0" speed="13.89" length="27.20" shape="208.00,186.40 208.00,213.60"/>
        <lane id=":gneJ16_11_1" index="1" speed="13.89" length="27.20" shape="204.80,186.40 204.80,213.60"/>
        <lane id=":gneJ16_11_2" index="2" speed="13.89" length="27.20" shape="201.60,186.40 201.60,213.60"/>
    </edge>
    <edge id=":gneJ16_14" function="internal">
        <lane id=":gneJ16_14_0" index="0" speed="10.36" length="24.51" shape="201.60,186.40 200.65,193.05 197.80,197.80 193.05,200.65 186.40,201.60"/>
    </edge>
    <edge id=":gneJ16_15" function="internal">
        <lane id=":gneJ16_15_0" index="0" speed="6.51" length="9.03" shape="186.40,192.00 188.85,191.65 190.60,190.60 191.65,188.85 192.00,186.40"/>
    </edge>
    <edge id=":gneJ16_16" function="internal">