<?xml version="1.0" encoding="UTF-8"?>

<!-- generated on 2024-11-18 15:46:33 by Eclipse SUMO jtrrouter Version 1.19.0
<configuration xmlns:xsi="http://www.w3.org/2001/XMLSchema-instance" xsi:noNamespaceSchemaLocation="http://sumo.dlr.de/xsd/jtrrouterConfiguration.xsd">

    <input>
        <net-file value="grid5x5.net.xml"/>
        <route-files value="input_flows.flows.xml"/>
        <turn-ratio-files value="turn.turns.xml"/>
    </input>

    <output>
        <output-file value="routes.rou.xml"/>
    </output>

    <processing>
        <accept-all-destinations value="t"/>
    </processing>

</configuration>
-->

<routes xmlns:xsi="http://www.w3.org/2001/XMLSchema-instance" xsi:noNamespaceSchemaLocation="http://sumo.dlr.de/xsd/routes_file.xsd">
    <vehicle id="0.0" depart="0.00">
        <route edges="-gneE41 gneE45"/>
    </vehicle>
    <vehicle id="1.0" depart="0.00">
        <route edges="-gneE43 -gneE31 -gneE30 gneE28 gneE48"/>
    </vehicle>
    <vehicle id="10.0" depart="0.00">
        <route edges="-gneE54 -gneE13 -gneE36 -gneE35 -gneE34 -gneE33 -gneE20 gneE18 gneE19 gneE41"/>
    </vehicle>
    <vehicle id="11.0" depart="0.00">
        <route edges="-gneE55 -gneE11 -gneE10 -gneE0 gneE8 gneE35 gneE36 -gneE12 gneE5 gneE15 gneE63"/>
    </vehicle>
    <vehicle id="12.0" depart="0.00">
        <route edges="-gneE56 gneE39 gneE40 gneE54"/>
    </vehicle>
    <vehicle id="13.0" depart="0.00">
        <route edges="-gneE57 -gneE23 -gneE22 gneE16 -gneE24 gneE19 gneE41"/>
    </vehicle>
    <vehicle id="14.0" depart="0.00">
        <route edges="-gneE58 -gneE21 gneE60"/>
    </vehicle>
    <vehicle id="15.0" depart="0.00">
        <route edges="-gneE59 -gneE21 gneE33 gneE23 -gneE37 gneE58"/>
    </vehicle>
    <vehicle id="16.0" depart="0.00">
        <route edges="-gneE60 gneE33 gneE34 gneE35 gneE11 gneE40 gneE53"/>
    </vehicle>
    <vehicle id="17.0" depart="0.00">
        <route edges="-gneE61 -gneE6 gneE16 -gneE24 gneE62"/>
    </vehicle>
    <vehicle id="18.0" depart="0.00">
        <route edges="-gneE62 gneE24 gneE25 gneE26 gneE27 gneE49"/>
    </vehicle>
    <vehicle id="19.0" depart="0.00">
        <route edges="-gneE45 -gneE32 -gneE31 -gneE30 gneE28 gneE63"/>
    </vehicle>
    <vehicle id="2.0" depart="0.00">
        <route edges="-gneE44 -gneE7 -gneE2 gneE0 gneE10 gneE11 gneE55"/>
    </vehicle>
    <vehicle id="3.0" depart="0.00">
        <route edges="-gneE46 gneE30 -gneE7 -gneE2 gneE8 gneE35 gneE36 -gneE12 gneE5 gneE15 gneE48"/>
    </vehicle>
    <vehicle id="4.0" depart="0.00">
        <route edges="-gneE63 -gneE15 -gneE27 -gneE3 gneE10 gneE11 gneE40 gneE53"/>
    </vehicle>
    <vehicle id="5.0" depart="0.00">
        <route edges="-gneE48 -gneE28 gneE30 gneE31 gneE32 gneE45"/>
    </vehicle>
    <vehicle id="6.0" depart="0.00">
        <route edges="-gneE49 -gneE27 -gneE26 -gneE25 gneE17 -gneE31 -gneE30 -gneE14 gneE27 gneE49"/>
    </vehicle>
    <vehicle id="7.0" depart="0.00">
        <route edges="-gneE51 gneE5 gneE15 gneE63"/>
    </vehicle>
    <vehicle id="8.0" depart="0.00">
        <route edges="-gneE52 -gneE36 -gneE35 gneE9 gneE56"/>
    </vehicle>
    <vehicle id="9.0" depart="0.00">
        <route edges="-gneE53 gneE54"/>
    </vehicle>
    <vehicle id="10.1" depart="33.33">
        <route edges="-gneE54 -gneE13 -gneE12 gneE5 gneE15 -gneE28 gneE30 gneE31 gneE32 gneE41"/>
    </vehicle>
    <vehicle id="9.1" depart="36.36">
        <route edges="-gneE53 -gneE40 -gneE11 -gneE35 -gneE34 gneE23 gneE57"/>
    </vehicle>
    <vehicle id="2.1" depart="40.00">
        <route edges="-gneE44 -gneE7 -gneE2 gneE8 gneE9 gneE56"/>
    </vehicle>
    <vehicle id="13.1" depart="40.82">
        <route edges="-gneE57 gneE38 -gneE9 gneE35 gneE36 gneE52"/>
    </vehicle>
    <vehicle id="8.1" depart="44.44">
        <route edges="-gneE52 -gneE36 -gneE35 -gneE34 -gneE33 gneE60"/>
    </vehicle>
    <vehicle id="15.1" depart="47.62">
        <route edges="-gneE59 gneE37 gneE38 -gneE9 gneE35 gneE36 gneE52"/>
    </vehicle>
    <vehicle id="0.1" depart="50.00">
        <route edges="-gneE41 gneE45"/>
    </vehicle>
    <vehicle id="12.1" depart="57.14">
        <route edges="-gneE56 -gneE9 -gneE34 gneE23 gneE57"/>
    </vehicle>
    <vehicle id="14.1" depart="57.14">
        <route edges="-gneE58 -gneE21 gneE60"/>
    </vehicle>
    <vehicle id="19.1" depart="58.82">
        <route edges="-gneE45 -gneE32 -gneE31 -gneE7 -gneE2 gneE8 -gneE34 -gneE33 gneE60"/>
    </vehicle>
    <vehicle id="16.1" depart="62.50">
        <route edges="-gneE60 -gneE20 gneE18 gneE62"/>
    </vehicle>
    <vehicle id="10.2" depart="66.67">
        <route edges="-gneE54 -gneE13 -gneE12 gneE51"/>
    </vehicle>
    <vehicle id="4.1" depart="66.67">
        <route edges="-gneE63 -gneE28 gneE30 gneE44"/>
    </vehicle>
    <vehicle id="7.1" depart="66.67">
        <route edges="-gneE51 -gneE4 gneE3 gneE14 gneE46"/>
    </vehicle>
    <vehicle id="9.2" depart="72.73">
        <route edges="-gneE53 gneE54"/>
    </vehicle>
    <vehicle id="2.2" depart="80.00">
        <route edges="-gneE44 -gneE7 -gneE2 gneE0 gneE4 gneE5 gneE15 gneE63"/>
    </vehicle>
    <vehicle id="6.1" depart="80.00">
        <route edges="-gneE49 -gneE27 -gneE3 -gneE0 gneE1 gneE16 gneE17 -gneE31 -gneE30 gneE28 gneE48"/>
    </vehicle>
    <vehicle id="13.2" depart="81.63">
        <route edges="-gneE57 -gneE23 gneE34 gneE35 gneE11 gneE55"/>
    </vehicle>
    <vehicle id="8.2" depart="88.89">
        <route edges="-gneE52 -gneE36 -gneE35 -gneE34 gneE23 gneE38 gneE56"/>
    </vehicle>
    <vehicle id="15.2" depart="95.24">
        <route edges="-gneE59 gneE37 gneE38 gneE39 -gneE11 -gneE10 -gneE0 gneE2 gneE7 gneE44"/>
    </vehicle>
    <vehicle id="10.3" depart="100.00">
        <route edges="-gneE54 -gneE13 -gneE12 -gneE4 -gneE0 gneE1 gneE6 gneE61"/>
    </vehicle>
    <vehicle id="0.2" depart="100.00">
        <route edges="-gneE41 -gneE32 -gneE31 -gneE30 gneE46"/>
    </vehicle>
    <vehicle id="1.1" depart="100.00">
        <route edges="-gneE43 -gneE17 -gneE16 gneE22 -gneE33 gneE60"/>
    </vehicle>
    <vehicle id="11.1" depart="100.00">
        <route edges="-gneE55 -gneE11 -gneE10 gneE4 gneE51"/>
    </vehicle>
    <vehicle id="3.1" depart="100.00">
        <route edges="-gneE46 -gneE14 gneE27 gneE15 gneE48"/>
    </vehicle>
    <vehicle id="18.1" depart="105.26">
        <route edges="-gneE62 gneE24 gneE17 gneE43"/>
    </vehicle>
    <vehicle id="9.3" depart="109.09">
        <route edges="-gneE53 -gneE40 -gneE39 -gneE9 -gneE8 gneE2 gneE7 -gneE30 gneE28 gneE48"/>
    </vehicle>
    <vehicle id="12.2" depart="114.28">
        <route edges="-gneE56 -gneE38 -gneE23 -gneE22 gneE6 gneE20 gneE21 gneE58"/>
    </vehicle>
    <vehicle id="14.2" depart="114.28">
        <route edges="-gneE58 -gneE21 gneE33 gneE34 gneE35 gneE36 gneE52"/>
    </vehicle>
    <vehicle id="19.2" depart="117.65">
        <route edges="-gneE45 -gneE32 -gneE31 -gneE30 gneE28 gneE48"/>
    </vehicle>
    <vehicle id="2.3" depart="120.00">
        <route edges="-gneE44 gneE31 gneE32 -gneE19 -gneE18 gneE20 gneE21 gneE58"/>
    </vehicle>
    <vehicle id="13.3" depart="122.45">
        <route edges="-gneE57 gneE38 gneE56"/>
    </vehicle>
    <vehicle id="16.2" depart="125.00">
        <route edges="-gneE60 gneE33 -gneE22 gneE6 gneE61"/>
    </vehicle>
    <vehicle id="10.4" depart="133.33">
        <route edges="-gneE54 -gneE13 -gneE12 gneE51"/>
    </vehicle>
    <vehicle id="4.2" depart="133.33">
        <route edges="-gneE63 -gneE28 gneE30 gneE31 -gneE17 -gneE16 gneE22 gneE23 gneE38 gneE39 gneE55"/>
    </vehicle>
    <vehicle id="7.2" depart="133.33">
        <route edges="-gneE51 -gneE4 gneE3 gneE14 gneE46"/>
    </vehicle>
    <vehicle id="8.3" depart="133.33">
        <route edges="-gneE52 -gneE36 -gneE35 -gneE34 gneE23 gneE57"/>
    </vehicle>
    <vehicle id="17.1" depart="133.33">
        <route edges="-gneE61 gneE18 gneE19 gneE41"/>
    </vehicle>
    <vehicle id="15.3" depart="142.86">
        <route edges="-gneE59 gneE58"/>
    </vehicle>
    <vehicle id="9.4" depart="145.45">
        <route edges="-gneE53 gneE54"/>
    </vehicle>
    <vehicle id="0.3" depart="150.00">
        <route edges="-gneE41 -gneE32 -gneE31 -gneE30 gneE28 gneE63"/>
    </vehicle>
    <vehicle id="2.4" depart="160.00">
        <route edges="-gneE44 gneE31 gneE32 -gneE19 gneE62"/>
    </vehicle>
    <vehicle id="6.2" depart="160.00">
        <route edges="-gneE49 -gneE27 -gneE26 gneE7 gneE44"/>
    </vehicle>
    <vehicle id="13.4" depart="163.26">
        <route edges="-gneE57 -gneE23 -gneE22 -gneE1 gneE0 gneE10 gneE11 gneE55"/>
    </vehicle>
    <vehicle id="10.5" depart="166.67">
        <route edges="-gneE54 -gneE40 gneE55"/>
    </vehicle>
    <vehicle id="12.3" depart="171.43">
        <route edges="-gneE56 -gneE9 -gneE8 gneE2 gneE7 gneE31 gneE32 gneE45"/>
    </vehicle>
    <vehicle id="14.3" depart="171.43">
        <route edges="-gneE58 gneE37 -gneE23 -gneE22 gneE16 -gneE24 -gneE18 -gneE6 -gneE1 gneE8 gneE9 gneE56"/>
    </vehicle>
    <vehicle id="19.3" depart="176.47">
        <route edges="-gneE45 gneE41"/>
    </vehicle>
    <vehicle id="8.4" depart="177.78">
        <route edges="-gneE52 -gneE12 gneE51"/>
    </vehicle>
    <vehicle id="9.5" depart="181.82">
        <route edges="-gneE53 -gneE40 -gneE11 -gneE10 gneE3 gneE27 gneE15 gneE63"/>
    </vehicle>
    <vehicle id="16.3" depart="187.50">
        <route edges="-gneE60 gneE21 gneE58"/>
    </vehicle>
    <vehicle id="15.4" depart="190.48">
        <route edges="-gneE59 gneE58"/>
    </vehicle>
    <vehicle id="10.6" depart="200.00">
        <route edges="-gneE54 gneE53"/>
    </vehicle>
    <vehicle id="4.3" depart="200.00">
        <route edges="-gneE63 -gneE15 gneE49"/>
    </vehicle>
    <vehicle id="7.3" depart="200.00">
        <route edges="-gneE51 gneE5 gneE15 gneE63"/>
    </vehicle>
    <vehicle id="0.4" depart="200.00">
        <route edges="-gneE41 -gneE19 -gneE18 gneE20 gneE60"/>
    </vehicle>
    <vehicle id="1.2" depart="200.00">
        <route edges="-gneE43 -gneE31 -gneE30 gneE46"/>
    </vehicle>
    <vehicle id="11.2" depart="200.00">
        <route edges="-gneE55 -gneE11 -gneE10 -gneE0 gneE1 gneE6 gneE61"/>
    </vehicle>
    <vehicle id="2.5" depart="200.00">
        <route edges="-gneE44 -gneE30 -gneE14 -gneE26 gneE7 gneE44"/>
    </vehicle>
    <vehicle id="3.2" depart="200.00">
        <route edges="-gneE46 -gneE14 -gneE3 gneE10 gneE11 gneE40 gneE53"/>
    </vehicle>
    <vehicle id="5.1" depart="200.00">
        <route edges="-gneE48 -gneE28 gneE30 gneE31 gneE32 gneE45"/>
    </vehicle>
    <vehicle id="13.5" depart="204.08">
        <route edges="-gneE57 -gneE23 -gneE22 gneE16 gneE17 gneE43"/>
    </vehicle>
    <vehicle id="18.2" depart="210.53">
        <route edges="-gneE62 -gneE18 gneE20 gneE21 gneE59"/>
    </vehicle>
    <vehicle id="9.6" depart="218.18">
        <route edges="-gneE53 gneE54"/>
    </vehicle>
    <vehicle id="8.5" depart="222.22">
        <route edges="-gneE52 -gneE12 gneE5 gneE15 -gneE28 gneE30 gneE31 -gneE17 gneE25 gneE26 gneE14 gneE46"/>
    </vehicle>
    <vehicle id="12.4" depart="228.57">
        <route edges="-gneE56 gneE39 gneE55"/>
    </vehicle>
    <vehicle id="14.4" depart="228.57">
        <route edges="-gneE58 gneE59"/>
    </vehicle>
    <vehicle id="10.7" depart="233.33">
        <route edges="-gneE54 -gneE13 -gneE36 -gneE35 gneE9 gneE56"/>
    </vehicle>
    <vehicle id="19.4" depart="235.29">
        <route edges="-gneE45 -gneE32 -gneE31 gneE44"/>
    </vehicle>
    <vehicle id="15.5" depart="238.10">
        <route edges="-gneE59 gneE37 gneE57"/>
    </vehicle>
    <vehicle id="2.6" depart="240.00">
        <route edges="-gneE44 -gneE30 gneE28 gneE48"/>
    </vehicle>
    <vehicle id="6.3" depart="240.00">
        <route edges="-gneE49 -gneE5 gneE12 gneE52"/>
    </vehicle>
    <vehicle id="13.6" depart="244.90">
        <route edges="-gneE57 -gneE23 -gneE22 gneE16 gneE17 gneE32 gneE45"/>
    </vehicle>
    <vehicle id="0.5" depart="250.00">
        <route edges="-gneE41 -gneE19 gneE24 gneE25 gneE26 gneE27 gneE49"/>
    </vehicle>
    <vehicle id="16.4" depart="250.00">
        <route edges="-gneE60 gneE33 gneE34 gneE35 gneE36 gneE13 -gneE40 -gneE39 -gneE38 -gneE37 gneE59"/>
    </vehicle>
    <vehicle id="9.7" depart="254.54">
        <route edges="-gneE53 gneE54"/>
    </vehicle>
    <vehicle id="10.8" depart="266.66">
        <route edges="-gneE54 -gneE13 -gneE12 gneE5 gneE15 gneE63"/>
    </vehicle>
    <vehicle id="4.4" depart="266.66">
        <route edges="-gneE63 -gneE28 -gneE14 -gneE3 gneE10 gneE11 gneE40 gneE53"/>
    </vehicle>
    <vehicle id="7.4" depart="266.66">
        <route edges="-gneE51 gneE5 -gneE27 -gneE26 -gneE25 gneE17 gneE43"/>
    </vehicle>
    <vehicle id="8.6" depart="266.66">
        <route edges="-gneE52 -gneE36 -gneE35 gneE9 -gneE38 -gneE37 gneE59"/>
    </vehicle>
    <vehicle id="17.2" depart="266.67">
        <route edges="-gneE61 gneE18 gneE62"/>
    </vehicle>
    <vehicle id="2.7" depart="280.00">
        <route edges="-gneE44 -gneE7 -gneE2 gneE8 -gneE34 -gneE33 gneE21 gneE59"/>
    </vehicle>
    <vehicle id="12.5" depart="285.71">
        <route edges="-gneE56 -gneE38 -gneE37 gneE59"/>
    </vehicle>
    <vehicle id="14.5" depart="285.71">
        <route edges="-gneE58 gneE59"/>
    </vehicle>
    <vehicle id="13.7" depart="285.71">
        <route edges="-gneE57 -gneE23 -gneE22 gneE16 gneE17 gneE43"/>
    </vehicle>
    <vehicle id="15.6" depart="285.71">
        <route edges="-gneE59 -gneE21 -gneE20 -gneE6 -gneE1 gneE2 gneE7 gneE44"/>
    </vehicle>
    <vehicle id="9.8" depart="290.90">
        <route edges="-gneE53 -gneE40 -gneE39 -gneE38 -gneE23 -gneE22 gneE16 gneE17 -gneE31 -gneE30 -gneE14 -gneE3 gneE10 gneE11 gneE55"/>
    </vehicle>
    <vehicle id="19.5" depart="294.12">
        <route edges="-gneE45 -gneE19 -gneE18 gneE20 gneE21 gneE58"/>
    </vehicle>
    <vehicle id="10.9" depart="300.00">
        <route edges="-gneE54 -gneE40 -gneE39 -gneE38 -gneE23 gneE34 gneE35 gneE36 gneE13 gneE54"/>
    </vehicle>
    <vehicle id="0.6" depart="300.00">
        <route edges="-gneE41 gneE45"/>
    </vehicle>
    <vehicle id="1.3" depart="300.00">
        <route edges="-gneE43 -gneE17 -gneE16 gneE22 gneE23 gneE38 gneE39 gneE40 gneE53"/>
    </vehicle>
    <vehicle id="11.3" depart="300.00">
        <route edges="-gneE55 gneE40 -gneE13 -gneE12 gneE5 gneE15 gneE48"/>
    </vehicle>
    <vehicle id="3.3" depart="300.00">
        <route edges="-gneE46 -gneE14 -gneE3 gneE10 -gneE35 -gneE8 gneE1 gneE6 gneE61"/>
    </vehicle>
    <vehicle id="8.7" depart="311.11">
        <route edges="-gneE52 -gneE36 gneE11 gneE55"/>
    </vehicle>
    <vehicle id="16.5" depart="312.50">
        <route edges="-gneE60 gneE33 gneE34 gneE35 gneE36 gneE52"/>
    </vehicle>
    <vehicle id="18.3" depart="315.79">
        <route edges="-gneE62 gneE24 -gneE16 gneE22 gneE34 gneE35 gneE36 gneE52"/>
    </vehicle>
    <vehicle id="2.8" depart="320.00">
        <route edges="-gneE44 -gneE7 -gneE2 gneE8 gneE9 gneE56"/>
    </vehicle>
    <vehicle id="6.4" depart="320.00">
        <route edges="-gneE49 -gneE5 gneE12 gneE13 gneE54"/>
    </vehicle>
    <vehicle id="13.8" depart="326.53">
        <route edges="-gneE57 -gneE37 gneE58"/>
    </vehicle>
    <vehicle id="9.9" depart="327.27">
        <route edges="-gneE53 -gneE40 -gneE11 gneE36 gneE52"/>
    </vehicle>
    <vehicle id="10.10" depart="333.33">
        <route edges="-gneE54 gneE53"/>
    </vehicle>
    <vehicle id="4.5" depart="333.33">
        <route edges="-gneE63 -gneE28 gneE46"/>
    </vehicle>
    <vehicle id="7.5" depart="333.33">
        <route edges="-gneE51 gneE5 gneE49"/>
    </vehicle>
    <vehicle id="15.7" depart="333.33">
        <route edges="-gneE59 gneE37 gneE38 gneE39 gneE55"/>
    </vehicle>
    <vehicle id="12.6" depart="342.85">
        <route edges="-gneE56 -gneE9 gneE35 -gneE10 gneE4 gneE12 -gneE36 -gneE35 gneE9 gneE39 -gneE11 gneE36 gneE52"/>
    </vehicle>
    <vehicle id="14.6" depart="342.85">
        <route edges="-gneE58 -gneE21 gneE33 gneE34 gneE35 gneE36 gneE52"/>
    </vehicle>
    <vehicle id="0.7" depart="350.00">
        <route edges="-gneE41 gneE45"/>
    </vehicle>
    <vehicle id="19.6" depart="352.94">
        <route edges="-gneE45 -gneE32 -gneE31 -gneE7 -gneE2 gneE1 gneE6 gneE61"/>
    </vehicle>
    <vehicle id="8.8" depart="355.55">
        <route edges="-gneE52 -gneE36 -gneE35 -gneE34 -gneE33 gneE21 gneE58"/>
    </vehicle>
    <vehicle id="2.9" depart="360.00">
        <route edges="-gneE44 gneE31 gneE43"/>
    </vehicle>
    <vehicle id="9.10" depart="363.63">
        <route edges="-gneE53 -gneE40 -gneE39 -gneE38 -gneE23 -gneE33 gneE60"/>
    </vehicle>
    <vehicle id="10.11" depart="366.66">
        <route edges="-gneE54 -gneE13 gneE52"/>
    </vehicle>
    <vehicle id="13.9" depart="367.34">
        <route edges="-gneE57 gneE38 gneE39 gneE40 gneE53"/>
    </vehicle>
    <vehicle id="16.6" depart="375.00">
        <route edges="-gneE60 -gneE20 gneE61"/>
    </vehicle>
    <vehicle id="15.8" depart="380.95">
        <route edges="-gneE59 gneE37 gneE38 gneE39 gneE40 gneE53"/>
    </vehicle>
    <vehicle id="9.11" depart="399.99">
        <route edges="-gneE53 -gneE13 -gneE12 gneE5 gneE15 gneE63"/>
    </vehicle>
    <vehicle id="12.7" depart="399.99">
        <route edges="-gneE56 -gneE9 -gneE8 gneE0 gneE10 gneE11 gneE55"/>
    </vehicle>
    <vehicle id="14.7" depart="399.99">
        <route edges="-gneE58 -gneE21 gneE60"/>
    </vehicle>
    <vehicle id="10.12" depart="400.00">
        <route edges="-gneE54 -gneE13 -gneE12 gneE51"/>
    </vehicle>
    <vehicle id="4.6" depart="400.00">
        <route edges="-gneE63 -gneE15 gneE49"/>
    </vehicle>
    <vehicle id="7.6" depart="400.00">
        <route edges="-gneE51 gneE5 gneE49"/>
    </vehicle>
    <vehicle id="8.9" depart="400.00">
        <route edges="-gneE52 -gneE36 gneE11 gneE55"/>
    </vehicle>
    <vehicle id="17.3" depart="400.00">
        <route edges="-gneE61 -gneE6 gneE16 gneE17 gneE43"/>
    </vehicle>
    <vehicle id="0.8" depart="400.00">
        <route edges="-gneE41 -gneE19 -gneE18 gneE20 gneE21 gneE58"/>
    </vehicle>
    <vehicle id="1.4" depart="400.00">
        <route edges="-gneE43 -gneE17 -gneE16 -gneE1 gneE2 gneE26 gneE27 gneE49"/>
    </vehicle>
    <vehicle id="11.4" depart="400.00">
        <route edges="-gneE55 -gneE11 -gneE10 gneE3 gneE27 gneE49"/>
    </vehicle>
    <vehicle id="2.10" depart="400.00">
        <route edges="-gneE44 -gneE7 -gneE2 gneE8 gneE35 gneE11 gneE55"/>
    </vehicle>
    <vehicle id="3.4" depart="400.00">
        <route edges="-gneE46 -gneE14 -gneE3 gneE10 gneE11 gneE55"/>
    </vehicle>
    <vehicle id="5.2" depart="400.00">
        <route edges="-gneE48 -gneE28 gneE46"/>
    </vehicle>
    <vehicle id="6.5" depart="400.00">
        <route edges="-gneE49 -gneE27 -gneE26 -gneE25 -gneE24 gneE62"/>
    </vehicle>
    <vehicle id="13.10" depart="408.16">
        <route edges="-gneE57 -gneE23 -gneE22 gneE16 gneE25 gneE26 gneE27 -gneE5 gneE12 gneE13 gneE54"/>
    </vehicle>
    <vehicle id="19.7" depart="411.76">
        <route edges="-gneE45 -gneE32 -gneE31 gneE44"/>
    </vehicle>
    <vehicle id="18.4" depart="421.05">
        <route edges="-gneE62 -gneE18 gneE20 gneE33 gneE23 gneE57"/>
    </vehicle>
    <vehicle id="15.9" depart="428.57">
        <route edges="-gneE59 gneE58"/>
    </vehicle>
    <vehicle id="10.13" depart="433.33">
        <route edges="-gneE54 -gneE13 -gneE12 gneE5 gneE49"/>
    </vehicle>
    <vehicle id="9.12" depart="436.36">
        <route edges="-gneE53 -gneE40 -gneE39 -gneE38 -gneE37 gneE59"/>
    </vehicle>
    <vehicle id="16.7" depart="437.50">
        <route edges="-gneE60 gneE33 gneE23 gneE57"/>
    </vehicle>
    <vehicle id="2.11" depart="440.00">
        <route edges="-gneE44 -gneE30 gneE46"/>
    </vehicle>
    <vehicle id="8.10" depart="444.44">
        <route edges="-gneE52 -gneE36 -gneE35 -gneE34 -gneE33 gneE60"/>
    </vehicle>
    <vehicle id="13.11" depart="448.98">
        <route edges="-gneE57 -gneE23 -gneE22 gneE16 -gneE24 gneE19 gneE45"/>
    </vehicle>
    <vehicle id="0.9" depart="450.00">
        <route edges="-gneE41 gneE45"/>
    </vehicle>
    <vehicle id="12.8" depart="457.14">
        <route edges="-gneE56 -gneE9 -gneE8 gneE2 gneE7 gneE44"/>
    </vehicle>
    <vehicle id="14.8" depart="457.14">
        <route edges="-gneE58 -gneE21 -gneE20 gneE18 gneE19 gneE41"/>
    </vehicle>
    <vehicle id="10.14" depart="466.66">
        <route edges="-gneE54 gneE53"/>
    </vehicle>
    <vehicle id="4.7" depart="466.66">
        <route edges="-gneE63 -gneE15 -gneE5 -gneE4 -gneE0 gneE2 gneE7 gneE44"/>
    </vehicle>
    <vehicle id="7.7" depart="466.66">
        <route edges="-gneE51 -gneE4 gneE10 gneE11 gneE55"/>
    </vehicle>
    <vehicle id="19.8" depart="470.58">
        <route edges="-gneE45 -gneE32 -gneE31 gneE44"/>
    </vehicle>
    <vehicle id="9.13" depart="472.72">
        <route edges="-gneE53 -gneE40 -gneE39 -gneE9 -gneE8 gneE2 gneE26 gneE14 gneE28 gneE48"/>
    </vehicle>
    <vehicle id="15.10" depart="476.19">
        <route edges="-gneE59 gneE37 gneE38 gneE39 -gneE11 -gneE10 -gneE0 gneE1 gneE6 gneE61"/>
    </vehicle>
    <vehicle id="2.12" depart="480.00">
        <route edges="-gneE44 -gneE7 -gneE25 gneE17 gneE43"/>
    </vehicle>
    <vehicle id="6.6" depart="480.00">
        <route edges="-gneE49 -gneE27 -gneE26 -gneE25 -gneE24 -gneE18 gneE20 gneE33 gneE34 gneE35 gneE11 gneE55"/>
    </vehicle>
    <vehicle id="8.11" depart="488.88">
        <route edges="-gneE52 -gneE36 -gneE35 -gneE8 gneE0 gneE4 gneE5 -gneE27 gneE14 gneE30 gneE31 gneE32 -gneE19 -gneE18 -gneE6 -gneE1 gneE8 gneE9 gneE56"/>
    </vehicle>
    <vehicle id="13.12" depart="489.79">
        <route edges="-gneE57 -gneE23 gneE34 -gneE8 gneE2 gneE7 gneE44"/>
    </vehicle>
    <vehicle id="10.15" depart="500.00">
        <route edges="-gneE54 -gneE13 -gneE12 gneE5 -gneE27 -gneE26 -gneE25 -gneE24 gneE62"/>
    </vehicle>
    <vehicle id="0.10" depart="500.00">
        <route edges="-gneE41 gneE45"/>
    </vehicle>
    <vehicle id="1.5" depart="500.00">
        <route edges="-gneE43 -gneE31 -gneE30 gneE28 gneE48"/>
    </vehicle>
    <vehicle id="11.5" depart="500.00">
        <route edges="-gneE55 -gneE39 -gneE38 -gneE37 gneE59"/>
    </vehicle>
    <vehicle id="16.8" depart="500.00">
        <route edges="-gneE60 gneE21 gneE58"/>
    </vehicle>
    <vehicle id="3.5" depart="500.00">
        <route edges="-gneE46 -gneE14 -gneE3 gneE10 gneE11 gneE55"/>
    </vehicle>
    <vehicle id="9.14" depart="509.08">
        <route edges="-gneE53 gneE54"/>
    </vehicle>
    <vehicle id="12.9" depart="514.28">
        <route edges="-gneE56 -gneE9 -gneE8 gneE2 gneE7 gneE44"/>
    </vehicle>
    <vehicle id="14.9" depart="514.28">
        <route edges="-gneE58 -gneE21 -gneE20 gneE18 gneE62"/>
    </vehicle>
    <vehicle id="2.13" depart="520.00">
        <route edges="-gneE44 -gneE30 gneE28 gneE48"/>
    </vehicle>
    <vehicle id="15.11" depart="523.81">
        <route edges="-gneE59 gneE37 -gneE23 -gneE22 -gneE1 gneE8 gneE35 gneE36 -gneE12 gneE5 gneE15 gneE63"/>
    </vehicle>
    <vehicle id="18.5" depart="526.32">
        <route edges="-gneE62 gneE24 -gneE16 gneE22 gneE23 gneE57"/>
    </vehicle>
    <vehicle id="19.9" depart="529.41">
        <route edges="-gneE45 -gneE32 -gneE17 -gneE16 gneE22 gneE23 gneE57"/>
    </vehicle>
    <vehicle id="13.13" depart="530.61">
        <route edges="-gneE57 -gneE23 -gneE33 gneE60"/>
    </vehicle>
    <vehicle id="10.16" depart="533.33">
        <route edges="-gneE54 -gneE13 -gneE12 -gneE4 gneE3 -gneE26 -gneE25 -gneE24 gneE62"/>
    </vehicle>
    <vehicle id="4.8" depart="533.33">
        <route edges="-gneE63 -gneE15 -gneE27 -gneE26 -gneE25 -gneE24 gneE62"/>
    </vehicle>
    <vehicle id="7.8" depart="533.33">
        <route edges="-gneE51 -gneE4 -gneE0 gneE1 gneE6 gneE61"/>
    </vehicle>
    <vehicle id="8.12" depart="533.33">
        <route edges="-gneE52 -gneE36 -gneE35 -gneE34 -gneE22 gneE6 gneE61"/>
    </vehicle>
    <vehicle id="17.4" depart="533.33">
        <route edges="-gneE61 gneE20 gneE21 gneE58"/>
    </vehicle>
    <vehicle id="9.15" depart="545.45">
        <route edges="-gneE53 -gneE13 -gneE12 gneE5 -gneE27 -gneE26 -gneE25 -gneE24 -gneE18 gneE20 gneE60"/>
    </vehicle>
    <vehicle id="0.11" depart="550.00">
        <route edges="-gneE41 gneE45"/>
    </vehicle>
    <vehicle id="2.14" depart="560.00">
        <route edges="-gneE44 -gneE7 gneE26 gneE27 gneE15 gneE63"/>
    </vehicle>
    <vehicle id="6.7" depart="560.00">
        <route edges="-gneE49 gneE15 gneE63"/>
    </vehicle>
    <vehicle id="16.9" depart="562.50">
        <route edges="-gneE60 -gneE20 gneE18 gneE24 gneE17 gneE43"/>
    </vehicle>
    <vehicle id="10.17" depart="566.66">
        <route edges="-gneE54 gneE53"/>
    </vehicle>
    <vehicle id="12.10" depart="571.42">
        <route edges="-gneE56 -gneE9 -gneE8 gneE2 gneE7 -gneE30 gneE46"/>
    </vehicle>
    <vehicle id="14.10" depart="571.42">
        <route edges="-gneE58 -gneE21 -gneE20 gneE18 gneE19 gneE41"/>
    </vehicle>
    <vehicle id="13.14" depart="571.42">
        <route edges="-gneE57 -gneE23 -gneE22 gneE16 gneE17 gneE43"/>
    </vehicle>
    <vehicle id="15.12" depart="571.43">
        <route edges="-gneE59 -gneE21 -gneE20 gneE61"/>
    </vehicle>
    <vehicle id="8.13" depart="577.77">
        <route edges="-gneE52 -gneE12 -gneE4 gneE3 -gneE26 -gneE25 -gneE24 gneE62"/>
    </vehicle>
    <vehicle id="9.16" depart="581.81">
        <route edges="-gneE53 -gneE40 -gneE11 -gneE10 gneE4 gneE12 -gneE36 -gneE35 gneE9 -gneE38 -gneE37 gneE59"/>
    </vehicle>
    <vehicle id="19.10" depart="588.23">
        <route edges="-gneE45 -gneE32 -gneE17 -gneE16 gneE6 gneE61"/>
    </vehicle>
    <vehicle id="10.18" depart="599.99">
        <route edges="-gneE54 -gneE13 -gneE12 gneE5 gneE15 -gneE28 gneE30 gneE31 gneE32 gneE45"/>
    </vehicle>
    <vehicle id="4.9" depart="599.99">
        <route edges="-gneE63 -gneE15 gneE49"/>
    </vehicle>
    <vehicle id="7.9" depart="599.99">
        <route edges="-gneE51 -gneE4 -gneE0 gneE2 gneE26 gneE27 gneE49"/>
    </vehicle>
    <vehicle id="0.12" depart="600.00">
        <route edges="-gneE41 -gneE19 gneE24 gneE17 gneE43"/>
    </vehicle>
    <vehicle id="1.6" depart="600.00">
        <route edges="-gneE43 -gneE17 -gneE16 gneE22 -gneE33 gneE21 gneE58"/>
    </vehicle>
    <vehicle id="11.6" depart="600.00">
        <route edges="-gneE55 -gneE39 -gneE38 gneE57"/>
    </vehicle>
    <vehicle id="2.15" depart="600.00">
        <route edges="-gneE44 gneE31 gneE43"/>
    </vehicle>
    <vehicle id="3.6" depart="600.00">
        <route edges="-gneE46 -gneE14 -gneE3 gneE10 gneE11 gneE40 gneE53"/>
    </vehicle>
    <vehicle id="5.3" depart="600.00">
        <route edges="-gneE48 -gneE15 -gneE5 gneE12 gneE13 gneE54"/>
    </vehicle>
    <vehicle id="13.15" depart="612.24">
        <route edges="-gneE57 gneE38 -gneE9 -gneE8 gneE1 gneE6 gneE61"/>
    </vehicle>
    <vehicle id="9.17" depart="618.17">
        <route edges="-gneE53 -gneE40 -gneE39 -gneE38 -gneE37 gneE59"/>
    </vehicle>
    <vehicle id="15.13" depart="619.05">
        <route edges="-gneE59 gneE37 gneE38 gneE39 gneE40 gneE53"/>
    </vehicle>
    <vehicle id="8.14" depart="622.22">
        <route edges="-gneE52 -gneE36 -gneE35 -gneE8 gneE2 gneE7 gneE44"/>
    </vehicle>
    <vehicle id="16.10" depart="625.00">
        <route edges="-gneE60 -gneE20 gneE61"/>
    </vehicle>
    <vehicle id="12.11" depart="628.56">
        <route edges="-gneE56 -gneE9 -gneE8 gneE2 gneE26 gneE27 gneE49"/>
    </vehicle>
    <vehicle id="14.11" depart="628.56">
        <route edges="-gneE58 -gneE21 gneE33 gneE34 -gneE8 gneE2 gneE7 gneE44"/>
    </vehicle>
    <vehicle id="18.6" depart="631.58">
        <route edges="-gneE62 -gneE18 gneE61"/>
    </vehicle>
    <vehicle id="10.19" depart="633.33">
        <route edges="-gneE54 -gneE13 -gneE12 gneE5 -gneE27 -gneE26 -gneE25 -gneE24 gneE62"/>
    </vehicle>
    <vehicle id="2.16" depart="640.00">
        <route edges="-gneE44 -gneE30 gneE46"/>
    </vehicle>
    <vehicle id="6.8" depart="640.00">
        <route edges="-gneE49 gneE15 gneE63"/>
    </vehicle>
    <vehicle id="19.11" depart="647.05">
        <route edges="-gneE45 -gneE32 gneE43"/>
    </vehicle>
    <vehicle id="0.13" depart="650.00">
        <route edges="-gneE41 -gneE19 -gneE18 -gneE6 -gneE1 gneE8 gneE35 gneE36 gneE52"/>
    </vehicle>
    <vehicle id="13.16" depart="653.06">
        <route edges="-gneE57 -gneE37 gneE59"/>
    </vehicle>
    <vehicle id="9.18" depart="654.53">
        <route edges="-gneE53 gneE54"/>
    </vehicle>
    <vehicle id="10.20" depart="666.66">
        <route edges="-gneE54 gneE53"/>
    </vehicle>
    <vehicle id="4.10" depart="666.66">
        <route edges="-gneE63 gneE48"/>
    </vehicle>
    <vehicle id="7.10" depart="666.66">
        <route edges="-gneE51 gneE5 gneE15 -gneE28 gneE30 gneE44"/>
    </vehicle>
    <vehicle id="8.15" depart="666.66">
        <route edges="-gneE52 gneE13 gneE54"/>
    </vehicle>
    <vehicle id="17.5" depart="666.67">
        <route edges="-gneE61 -gneE6 gneE16 gneE17 -gneE31 -gneE30 gneE46"/>
    </vehicle>