<?xml version="1.0" encoding="UTF-8"?>

<!-- generated on 2023-08-13 17:07:39 by Eclipse SUMO netedit Version 1.10.0
<configuration xmlns:xsi="http://www.w3.org/2001/XMLSchema-instance" xsi:noNamespaceSchemaLocation="http://sumo.dlr.de/xsd/netconvertConfiguration.xsd">

    <output>
        <output-file value="D:\Program_Files\Sumo\file\NonEudian\NonE.net.xml"/>
    </output>

    <processing>
        <offset.disable-normalization value="true"/>
    </processing>

    <junctions>
        <no-turnarounds value="true"/>
    </junctions>

    <report>
        <aggregate-warnings value="5"/>
    </report>

</configuration>
-->

<net version="1.9" junctionCornerDetail="5" limitTurnSpeed="5.50" xmlns:xsi="http://www.w3.org/2001/XMLSchema-instance" xsi:noNamespaceSchemaLocation="http://sumo.dlr.de/xsd/net_file.xsd">

    <location netOffset="0.00,0.00" convBoundary="-40.00,-265.00,340.00,40.00" origBoundary="10000000000.00,10000000000.00,-10000000000.00,-10000000000.00" projParameter="!"/>

    <edge id=":gneJ0_0" function="internal">
        <lane id=":gneJ0_0_0" index="0" speed="6.51" length="9.03" shape="-8.00,13.60 -8.35,11.15 -9.40,9.40 -11.15,8.35 -13.60,8.00"/>
    </edge>
    <edge id=":gneJ0_1" function="internal">
        <lane id=":gneJ0_1_0" index="0" speed="13.89" length="27.20" shape="-8.00,13.60 -8.00,-13.60"/>
        <lane id=":gneJ0_1_1" index="1" speed="13.89" length="27.20" shape="-4.80,13.60 -4.80,-13.60"/>
        <lane id=":gneJ0_1_2" index="2" speed="13.89" length="27.20" shape="-1.60,13.60 -1.60,-13.60"/>
    </edge>
    <edge id=":gneJ0_4" function="internal">
        <lane id=":gneJ0_4_0" index="0" speed="10.36" length="24.51" shape="-1.60,13.60 -0.65,6.95 2.20,2.20 6.95,-0.65 13.60,-1.60"/>
    </edge>
    <edge id=":gneJ0_5" function="internal">
        <lane id=":gneJ0_5_0" index="0" speed="6.51" length="9.03" shape="13.60,8.00 11.15,8.35 9.40,9.40 8.35,11.15 8.00,13.60"/>
    </edge>
    <edge id=":gneJ0_6" function="internal">
        <lane id=":gneJ0_6_0" index="0" speed="13.89" length="27.20" shape="13.60,8.00 -13.60,8.00"/>
        <lane id=":gneJ0_6_1" index="1" speed="13.89" length="27.20" shape="13.60,4.80 -13.60,4.80"/>
        <lane id=":gneJ0_6_2" index="2" speed="13.89" length="27.20" shape="13.60,1.60 -13.60,1.60"/>
    </edge>
    <edge id=":gneJ0_9" function="internal">
        <lane id=":gneJ0_9_0" index="0" speed="10.36" length="24.51" shape="13.60,1.60 6.95,0.65 2.20,-2.20 -0.65,-6.95 -1.60,-13.60"/>
    </edge>
    <edge id=":gneJ0_10" function="internal">
        <lane id=":gneJ0_10_0" index="0" speed="6.51" length="9.03" shape="8.00,-13.60 8.35,-11.15 9.40,-9.40 11.15,-8.35 13.60,-8.00"/>
    </edge>
    <edge id=":gneJ0_11" function="internal">
        <lane id=":gneJ0_11_0" index="0" speed="13.89" length="27.20" shape="8.00,-13.60 8.00,13.60"/>
        <lane id=":gneJ0_11_1" index="1" speed="13.89" length="27.20" shape="4.80,-13.60 4.80,13.60"/>
        <lane id=":gneJ0_11_2" index="2" speed="13.89" length="27.20" shape="1.60,-13.60 1.60,13.60"/>
    </edge>
    <edge id=":gneJ0_14" function="internal">
        <lane id=":gneJ0_14_0" index="0" speed="10.36" length="24.51" shape="1.60,-13.60 0.65,-6.95 -2.20,-2.20 -6.95,0.65 -13.60,1.60"/>
    </edge>
    <edge id=":gneJ0_15" function="internal">
        <lane id=":gneJ0_15_0" index="0" speed="6.51" length="9.03" shape="-13.60,-8.00 -11.15,-8.35 -9.40,-9.40 -8.35,-11.15 -8.00,-13.60"/>
    </edge>
    <edge id=":gneJ0_16" function="internal">
        <lane id=":gneJ0_16_0" index="0" speed="13.89" length="27.20" shape="-13.60,-8.00 13.60,-8.00"/>
        <lane id=":gneJ0_16_1" index="1" speed="13.89" length="27.20" shape="-13.60,-4.80 13.60,-4.80"/>
        <lane id=":gneJ0_16_2" index="2" speed="13.89" length="27.20" shape="-13.60,-1.60 13.60,-1.60"/>
    </edge>
    <edge id=":gneJ0_19" function="internal">
        <lane id=":gneJ0_19_0" index="0" speed="10.36" length="24.51" shape="-13.60,-1.60 -6.95,-0.65 -2.20,2.20 0.65,6.95 1.60,13.60"/>
    </edge>
    <edge id=":gneJ1_0" function="internal">
        <lane id=":gneJ1_0_0" index="0" speed="6.51" length="9.03" shape="195.20,13.60 194.85,11.15 193.80,9.40 192.05,8.35 189.60,8.00"/>
    </edge>
    <edge id=":gneJ1_1" function="internal">
        <lane id=":gneJ1_1_0" index="0" speed="13.89" length="27.20" shape="195.20,13.60 195.20,-13.60"/>
        <lane id=":gneJ1_1_1" index="1" speed="13.89" length="27.20" shape="198.40,13.60 198.40,-13.60"/>
    </edge>
    <edge id=":gneJ1_3" function="internal">
        <lane id=":gneJ1_3_0" index="0" speed="9.84" length="21.99" shape="198.40,13.60 199.15,6.95 201.40,2.20 205.15,-0.65 210.40,-1.60"/>
    </edge>
    <edge id=":gneJ1_4" function="internal">
        <lane id=":gneJ1_4_0" index="0" speed="7.33" length="11.73" shape="210.40,4.80 207.95,5.35 206.20,7.00 205.15,9.75 204.80,13.60"/>
    </edge>
    <edge id=":gneJ1_5" function="internal">
        <lane id=":gneJ1_5_0" index="0" speed="13.89" length="20.80" shape="210.40,4.80 189.60,4.80"/>
        <lane id=":gneJ1_5_1" index="1" speed="13.89" length="20.80" shape="210.40,1.60 189.60,1.60"/>
    </edge>
    <edge id=":gneJ1_7" function="internal">
        <lane id=":gneJ1_7_0" index="0" speed="9.84" length="21.99" shape="210.40,1.60 205.15,0.65 201.40,-2.20 199.15,-6.95 198.40,-13.60"/>
    </edge>
    <edge id=":gneJ1_8" function="internal">
        <lane id=":gneJ1_8_0" index="0" speed="7.33" length="11.73" shape="204.80,-13.60 205.15,-9.75 206.20,-7.00 207.95,-5.35 210.40,-4.80"/>
    </edge>
    <edge id=":gneJ1_9" function="internal">
        <lane id=":gneJ1_9_0" index="0" speed="13.89" length="27.20" shape="204.80,-13.60 204.80,13.60"/>
        <lane id=":gneJ1_9_1" index="1" speed="13.89" length="27.20" shape="201.60,-13.60 201.60,13.60"/>
    </edge>
    <edge id=":gneJ1_11" function="internal">
        <lane id=":gneJ1_11_0" index="0" speed="9.84" length="21.99" shape="201.60,-13.60 200.85,-6.95 198.60,-2.20 194.85,0.65 189.60,1.60"/>
    </edge>
    <edge id=":gneJ1_12" function="internal">
        <lane id=":gneJ1_12_0" index="0" speed="6.51" length="9.03" shape="189.60,-8.00 192.05,-8.35 193.80,-9.40 194.85,-11.15 195.20,-13.60"/>
    </edge>
    <edge id=":gneJ1_13" function="internal">
        <lane id=":gneJ1_13_0" index="0" speed="13.89" length="21.12" shape="189.60,-8.00 195.88,-7.50 200.20,-6.40 204.41,-5.30 210.40,-4.80"/>
        <lane id=":gneJ1_13_1" index="1" speed="13.89" length="21.12" shape="189.60,-4.80 195.88,-4.30 200.20,-3.20 204.41,-2.10 210.40,-1.60"/>
    </edge>
    <edge id=":gneJ1_15" function="internal">
        <lane id=":gneJ1_15_0" index="0" speed="9.84" length="21.99" shape="189.60,-1.60 194.85,-0.65 198.60,2.20 200.85,6.95 201.60,13.60"/>
    </edge>
    <edge id=":gneJ2_0" function="internal">
        <lane id=":gneJ2_0_0" index="0" speed="6.51" length="9.03" shape="-8.00,-61.40 -8.35,-63.85 -9.40,-65.60 -11.15,-66.65 -13.60,-67.00"/>
    </edge>
    <edge id=":gneJ2_1" function="internal">
        <lane id=":gneJ2_1_0" index="0" speed="13.89" length="27.20" shape="-8.00,-61.40 -8.00,-88.60"/>
        <lane id=":gneJ2_1_1" index="1" speed="13.89" length="27.20" shape="-4.80,-61.40 -4.80,-88.60"/>
        <lane id=":gneJ2_1_2" index="2" speed="13.89" length="27.20" shape="-1.60,-61.40 -1.60,-88.60"/>
    </edge>
    <edge id=":gneJ2_4" function="internal">
        <lane id=":gneJ2_4_0" index="0" speed="10.36" length="24.51" shape="-1.60,-61.40 -0.65,-68.05 2.20,-72.80 6.95,-75.65 13.60,-76.60"/>
    </edge>
    <edge id=":gneJ2_5" function="internal">
        <lane id=":gneJ2_5_0" index="0" speed="6.51" length="9.03" shape="13.60,-67.00 11.15,-66.65 9.40,-65.60 8.35,-63.85 8.00,-61.40"/>
    </edge>
    <edge id=":gneJ2_6" function="internal">
        <lane id=":gneJ2_6_0" index="0" speed="13.89" length="27.20" shape="13.60,-67.00 -13.60,-67.00"/>
        <lane id=":gneJ2_6_1" index="1" speed="13.89" length="27.20" shape="13.60,-70.20 -13.60,-70.20"/>
        <lane id=":gneJ2_6_2" index="2" speed="13.89" length="27.20" shape="13.60,-73.40 -13.60,-73.40"/>
    </edge>
    <edge id=":gneJ2_9" function="internal">
        <lane id=":gneJ2_9_0" index="0" speed="10.36" length="24.51" shape="13.60,-73.40 6.95,-74.35 2.20,-77.20 -0.65,-81.95 -1.60,-88.60"/>
    </edge>
    <edge id=":gneJ2_10" function="internal">
        <lane id=":gneJ2_10_0" index="0" speed="6.51" length="9.03" shape="8.00,-88.60 8.35,-86.15 9.40,-84.40 11.15,-83.35 13.60,-83.00"/>
    </edge>
    <edge id=":gneJ2_11" function="internal">
        <lane id=":gneJ2_11_0" index="0" speed="13.89" length="27.20" shape="8.00,-88.60 8.00,-61.40"/>
        <lane id=":gneJ2_11_1" index="1" speed="13.89" length="27.20" shape="4.80,-88.60 4.80,-61.40"/>
        <lane id=":gneJ2_11_2" index="2" speed="13.89" length="27.20" shape="1.60,-88.60 1.60,-61.40"/>
    </edge>
    <edge id=":gneJ2_14" function="internal">
        <lane id=":gneJ2_14_0" index="0" speed="10.36" length="24.51" shape="1.60,-88.60 0.65,-81.95 -2.20,-77.20 -6.95,-74.35 -13.60,-73.40"/>
    </edge>
    <edge id=":gneJ2_15" function="internal">
        <lane id=":gneJ2_15_0" index="0" speed="6.51" length="9.03" shape="-13.60,-83.00 -11.15,-83.35 -9.40,-84.40 -8.35,-86.15 -8.00,-88.60"/>
    </edge>
    <edge id=":gneJ2_16" function="internal">
        <lane id=":gneJ2_16_0" index="0" speed="13.89" length="27.20" shape="-13.60,-83.00 13.60,-83.00"/>
        <lane id=":gneJ2_16_1" index="1" speed="13.89" length="27.20" shape="-13.60,-79.80 13.60,-79.80"/>
        <lane id=":gneJ2_16_2" index="2" speed="13.89" length="27.20" shape="-13.60,-76.60 13.60,-76.60"/>
    </edge>
    <edge id=":gneJ2_19" function="internal">
        <lane id=":gneJ2_19_0" index="0" speed="10.36" length="24.51" shape="-13.60,-76.60 -6.95,-75.65 -2.20,-72.80 0.65,-68.05 1.60,-61.40"/>
    </edge>
    <edge id=":gneJ3_0" function="internal">
        <lane id=":gneJ3_0_0" index="0" speed="6.51" length="9.03" shape="195.20,-61.40 194.85,-63.85 193.80,-65.60 192.05,-66.65 189.60,-67.00"/>
        <lane id=":gneJ3_0_1" index="1" speed="8.00" length="14.19" shape="198.40,-61.40 197.85,-65.25 196.20,-68.00 193.45,-69.65 189.60,-70.20"/>
    </edge>
    <edge id=":gneJ3_2" function="internal">
        <lane id=":gneJ3_2_0" index="0" speed="13.89" length="27.20" shape="198.40,-61.40 198.40,-88.60"/>
    </edge>
    <edge id=":gneJ3_3" function="internal">
        <lane id=":gneJ3_3_0" index="0" speed="13.89" length="27.20" shape="204.80,-88.60 204.80,-61.40"/>
        <lane id=":gneJ3_3_1" index="1" speed="13.89" length="27.20" shape="201.60,-88.60 201.60,-61.40"/>
    </edge>
    <edge id=":gneJ3_5" function="internal">
        <lane id=":gneJ3_5_0" index="0" speed="10.41" length="24.73" shape="201.60,-88.60 200.85,-80.55 198.60,-74.80 194.85,-71.35 189.60,-70.20"/>
        <lane id=":gneJ3_5_1" index="1" speed="9.84" length="21.99" shape="201.60,-88.60 200.85,-81.95 198.60,-77.20 194.85,-74.35 189.60,-73.40"/>
    </edge>
    <edge id=":gneJ3_7" function="internal">
        <lane id=":gneJ3_7_0" index="0" speed="6.51" length="9.03" shape="189.60,-83.00 192.05,-83.35 193.80,-84.40 194.85,-86.15 195.20,-88.60"/>
        <lane id=":gneJ3_7_1" index="1" speed="8.00" length="14.19" shape="189.60,-79.80 193.45,-80.35 196.20,-82.00 197.85,-84.75 198.40,-88.60"/>
    </edge>
    <edge id=":gneJ3_9" function="internal">
        <lane id=":gneJ3_9_0" index="0" speed="9.84" length="21.99" shape="189.60,-76.60 194.85,-75.65 198.60,-72.80 200.85,-68.05 201.60,-61.40"/>
    </edge>
    <edge id=":gneJ4_0" function="internal">
        <lane id=":gneJ4_0_0" index="0" speed="6.51" length="9.03" shape="-8.00,-211.40 -8.35,-213.85 -9.40,-215.60 -11.15,-216.65 -13.60,-217.00"/>
    </edge>
    <edge id=":gneJ4_1" function="internal">
        <lane id=":gneJ4_1_0" index="0" speed="13.89" length="27.20" shape="-8.00,-211.40 -8.00,-238.60"/>
        <lane id=":gneJ4_1_1" index="1" speed="13.89" length="27.20" shape="-4.80,-211.40 -4.80,-238.60"/>
        <lane id=":gneJ4_1_2" index="2" speed="13.89" length="27.20" shape="-1.60,-211.40 -1.60,-238.60"/>
    </edge>
    <edge id=":gneJ4_4" function="internal">
        <lane id=":gneJ4_4_0" index="0" speed="10.36" length="24.51" shape="-1.60,-211.40 -0.65,-218.05 2.20,-222.80 6.95,-225.65 13.60,-226.60"/>
    </edge>
    <edge id=":gneJ4_5" function="internal">
        <lane id=":gneJ4_5_0" index="0" speed="6.51" length="9.03" shape="13.60,-217.00 11.15,-216.65 9.40,-215.60 8.35,-213.85 8.00,-211.40"/>
    </edge>
    <edge id=":gneJ4_6" function="internal">
        <lane id=":gneJ4_6_0" index="0" speed="13.89" length="27.20" shape="13.60,-217.00 -13.60,-217.00"/>
        <lane id=":gneJ4_6_1" index="1" speed="13.89" length="27.20" shape="13.60,-220.20 -13.60,-220.20"/>
        <lane id=":gneJ4_6_2" index="2" speed="13.89" length="27.20" shape="13.60,-223.40 -13.60,-223.40"/>
    </edge>
    <edge id=":gneJ4_9" function="internal">
        <lane id=":gneJ4_9_0" index="0" speed="10.36" length="24.51" shape="13.60,-223.40 6.95,-224.35 2.20,-227.20 -0.65,-231.95 -1.60,-238.60"/>
    </edge>
    <edge id=":gneJ4_10" function="internal">
        <lane id=":gneJ4_10_0" index="0" speed="6.51" length="9.03" shape="8.00,-238.60 8.35,-236.15 9.40,-234.40 11.15,-233.35 13.60,-233.00"/>
    </edge>
    <edge id=":gneJ4_11" function="internal">
        <lane id=":gneJ4_11_0" index="0" speed="13.89" length="27.20" shape="8.00,-238.60 8.00,-211.40"/>
        <lane id=":gneJ4_11_1" index="1" speed="13.89" length="27.20" shape="4.80,-238.60 4.80,-211.40"/>
        <lane id=":gneJ4_11_2" index="2" speed="13.89" length="27.20" shape="1.60,-238.60 1.60,-211.40"/>
    </edge>
    <edge id=":gneJ4_14" function="internal">
        <lane id=":gneJ4_14_0" index="0" speed="10.36" length="24.51" shape="1.60,-238.60 0.65,-231.95 -2.20,-227.20 -6.95,-224.35 -13.60,-223.40"/>
    </edge>
    <edge id=":gneJ4_15" function="internal">
        <lane id=":gneJ4_15_0" index="0" speed="6.51" length="9.03" shape="-13.60,-233.00 -11.15,-233.35 -9.40,-234.40 -8.35,-236.15 -8.00,-238.60"/>
    </edge>
    <edge id=":gneJ4_16" function="internal">
        <lane id=":gneJ4_16_0" index="0" speed="13.89" length="27.20" shape="-13.60,-233.00 13.60,-233.00"/>
        <lane id=":gneJ4_16_1" index="1" speed="13.89" length="27.20" shape="-13.60,-229.80 13.60,-229.80"/>
        <lane id=":gneJ4_16_2" index="2" speed="13.89" length="27.20" shape="-13.60,-226.60 13.60,-226.60"/>
    </edge>
    <edge id=":gneJ4_19" function="internal">
        <lane id=":gneJ4_19_0" index="0" speed="10.36" length="24.51" shape="-13.60,-226.60 -6.95,-225.65 -2.20,-222.80 0.65,-218.05 1.60,-211.40"/>
    </edge>
    <edge id=":gneJ5_0" function="internal">
        <lane id=":gneJ5_0_0" index="0" speed="7.33" length="11.73" shape="195.20,-211.40 194.65,-213.85 193.00,-215.60 190.25,-216.65 186.40,-217.00"/>
    </edge>
    <edge id=":gneJ5_1" function="internal">
        <lane id=":gneJ5_1_0" index="0" speed="13.89" length="27.20" shape="195.20,-211.40 195.20,-238.60"/>
        <lane id=":gneJ5_1_1" index="1" speed="13.89" length="27.20" shape="198.40,-211.40 198.40,-238.60"/>
    </edge>
    <edge id=":gneJ5_3" function="internal">
        <lane id=":gneJ5_3_0" index="0" speed="10.36" length="24.51" shape="198.40,-211.40 199.35,-218.05 202.20,-222.80 206.95,-225.65 213.60,-226.60"/>
    </edge>
    <edge id=":gneJ5_4" function="internal">
        <lane id=":gneJ5_4_0" index="0" speed="7.33" length="11.73" shape="213.60,-217.00 209.75,-216.65 207.00,-215.60 205.35,-213.85 204.80,-211.40"/>
    </edge>
    <edge id=":gneJ5_5" function="internal">
        <lane id=":gneJ5_5_0" index="0" speed="13.89" length="27.20" shape="213.60,-217.00 186.40,-217.00"/>
        <lane id=":gneJ5_5_1" index="1" speed="13.89" length="27.20" shape="213.60,-220.20 186.40,-220.20"/>
        <lane id=":gneJ5_5_2" index="2" speed="13.89" length="27.20" shape="213.60,-223.40 186.40,-223.40"/>
    </edge>
    <edge id=":gneJ5_8" function="internal">
        <lane id=":gneJ5_8_0" index="0" speed="10.36" length="24.51" shape="213.60,-223.40 206.95,-224.35 202.20,-227.20 199.35,-231.95 198.40,-238.60"/>
    </edge>
    <edge id=":gneJ5_9" function="internal">
        <lane id=":gneJ5_9_0" index="0" speed="6.51" length="9.03" shape="208.00,-238.60 208.35,-236.15 209.40,-234.40 211.15,-233.35 213.60,-233.00"/>
    </edge>
    <edge id=":gneJ5_10" function="internal">
        <lane id=":gneJ5_10_0" index="0" speed="13.89" length="27.43" shape="208.00,-238.60 207.50,-229.98 206.40,-223.61 205.30,-217.94 204.80,-211.40"/>
        <lane id=":gneJ5_10_1" index="1" speed="13.89" length="27.43" shape="204.80,-238.60 204.30,-229.98 203.20,-223.61 202.10,-217.94 201.60,-211.40"/>
    </edge>
    <edge id=":gneJ5_12" function="internal">
        <lane id=":gneJ5_12_0" index="0" speed="10.36" length="24.51" shape="201.60,-238.60 200.65,-231.95 197.80,-227.20 193.05,-224.35 186.40,-223.40"/>
    </edge>
    <edge id=":gneJ5_13" function="internal">
        <lane id=":gneJ5_13_0" index="0" speed="6.51" length="9.03" shape="186.40,-233.00 188.85,-233.35 190.60,-234.40 191.65,-236.15 192.00,-238.60"/>
    </edge>
    <edge id=":gneJ5_14" function="internal">
        <lane id=":gneJ5_14_0" index="0" speed="13.89" length="27.20" shape="186.40,-233.00 213.60,-233.00"/>
        <lane id=":gneJ5_14_1" index="1" speed="13.89" length="27.20" shape="186.40,-229.80 213.60,-229.80"/>
        <lane id=":gneJ5_14_2" index="2" speed="13.89" length="27.20" shape="186.40,-226.60 213.60,-226.60"/>
    </edge>
    <edge id=":gneJ5_17" function="internal">
        <lane id=":gneJ5_17_0" index="0" speed="10.36" length="24.51" shape="186.40,-226.60 193.05,-225.65 197.80,-222.80 200.65,-218.05 201.60,-211.40"/>
    </edge>
    <edge id=":gneJ6_0" function="internal">
        <lane id=":gneJ6_0_0" index="0" speed="13.89" length="27.20" shape="313.60,4.80 286.40,4.80"/>
        <lane id=":gneJ6_0_1" index="1" speed="13.89" length="27.20" shape="313.60,1.60 286.40,1.60"/>
    </edge>
    <edge id=":gneJ6_2" function="internal">
        <lane id=":gneJ6_2_0" index="0" speed="10.41" length="24.73" shape="313.60,1.60 305.55,0.85 299.80,-1.40 296.35,-5.15 295.20,-10.40"/>
        <lane id=":gneJ6_2_1" index="1" speed="9.84" length="21.99" shape="313.60,1.60 306.95,0.85 302.20,-1.40 299.35,-5.15 298.40,-10.40"/>
    </edge>
    <edge id=":gneJ6_4" function="internal">
        <lane id=":gneJ6_4_0" index="0" speed="6.51" length="9.03" shape="308.00,-10.40 308.35,-7.95 309.40,-6.20 311.15,-5.15 313.60,-4.80"/>
        <lane id=":gneJ6_4_1" index="1" speed="8.00" length="14.19" shape="304.80,-10.40 305.35,-6.55 307.00,-3.80 309.75,-2.15 313.60,-1.60"/>
    </edge>
    <edge id=":gneJ6_6" function="internal">
        <lane id=":gneJ6_6_0" index="0" speed="9.84" length="21.99" shape="301.60,-10.40 300.65,-5.15 297.80,-1.40 293.05,0.85 286.40,1.60"/>
    </edge>
    <edge id=":gneJ6_7" function="internal">
        <lane id=":gneJ6_7_0" index="0" speed="6.51" length="9.03" shape="286.40,-4.80 288.85,-5.15 290.60,-6.20 291.65,-7.95 292.00,-10.40"/>
        <lane id=":gneJ6_7_1" index="1" speed="8.00" length="14.19" shape="286.40,-1.60 290.25,-2.15 293.00,-3.80 294.65,-6.55 295.20,-10.40"/>
    </edge>
    <edge id=":gneJ6_9" function="internal">
        <lane id=":gneJ6_9_0" index="0" speed="13.89" length="27.20" shape="286.40,-1.60 313.60,-1.60"/>
    </edge>
    <edge id=":gneJ7_0" function="internal">
        <lane id=":gneJ7_0_0" index="0" speed="6.51" length="9.03" shape="292.00,-211.40 291.65,-213.85 290.60,-215.60 288.85,-216.65 286.40,-217.00"/>
    </edge>
    <edge id=":gneJ7_1" function="internal">
        <lane id=":gneJ7_1_0" index="0" speed="13.89" length="27.20" shape="292.00,-211.40 292.00,-238.60"/>
        <lane id=":gneJ7_1_1" index="1" speed="13.89" length="27.20" shape="295.20,-211.40 295.20,-238.60"/>
        <lane id=":gneJ7_1_2" index="2" speed="13.89" length="27.20" shape="298.40,-211.40 298.40,-238.60"/>
    </edge>
    <edge id=":gneJ7_4" function="internal">
        <lane id=":gneJ7_4_0" index="0" speed="10.36" length="24.51" shape="298.40,-211.40 299.35,-218.05 302.20,-222.80 306.95,-225.65 313.60,-226.60"/>
    </edge>
    <edge id=":gneJ7_5" function="internal">
        <lane id=":gneJ7_5_0" index="0" speed="6.51" length="9.03" shape="313.60,-217.00 311.15,-216.65 309.40,-215.60 308.35,-213.85 308.00,-211.40"/>
    </edge>
    <edge id=":gneJ7_6" function="internal">
        <lane id=":gneJ7_6_0" index="0" speed="13.89" length="27.20" shape="313.60,-217.00 286.40,-217.00"/>
        <lane id=":gneJ7_6_1" index="1" speed="13.89" length="27.20" shape="313.60,-220.20 286.40,-220.20"/>
        <lane id=":gneJ7_6_2" index="2" speed="13.89" length="27.20" shape="313.60,-223.40 286.40,-223.40"/>
    </edge>
    <edge id=":gneJ7_9" function="internal">
        <lane id=":gneJ7_9_0" index="0" speed="10.36" length="24.51" shape="313.60,-223.40 306.95,-224.35 302.20,-227.20 299.35,-231.95 298.40,-238.60"/>
    </edge>
    <edge id=":gneJ7_10" function="internal">
        <lane id=":gneJ7_10_0" index="0" speed="6.51" length="9.03" shape="308.00,-238.60 308.35,-236.15 309.40,-234.40 311.15,-233.35 313.60,-233.00"/>
    </edge>
    <edge id=":gneJ7_11" function="internal">
        <lane id=":gneJ7_11_0" index="0" speed="13.89" length="27.20" shape="308.00,-238.60 308.00,-211.40"/>
        <lane id=":gneJ7_11_1" index="1" speed="13.89" length="27.20" shape="304.80,-238.60 304.80,-211.40"/>
        <lane id=":gneJ7_11_2" index="2" speed="13.89" length="27.20" shape="301.60,-238.60 301.60,-211.40"/>
    </edge>
    <edge id=":gneJ7_14" function="internal">
        <lane id=":gneJ7_14_0" index="0" speed="10.36" length="24.51" shape="301.60,-238.60 300.65,-231.95 297.80,-227.20 293.05,-224.35 286.40,-223.40"/>
    </edge>
    <edge id=":gneJ7_15" function="internal">
        <lane id=":gneJ7_15_0" index="0" speed="6.51" length="9.03" shape="286.40,-233.00 288.85,-233.35 290.60,-234.40 291.65,-236.15 292.00,-238.60"/>
    </edge>
    <edge id=":gneJ7_16" function="internal">
        <lane id=":gneJ7_16_0" index="0" speed="13.89" length="27.20" shape="286.40,-233.00 313.60,-233.00"/>
        <lane id=":gneJ7_16_1" index="1" speed="13.89" length="27.20" shape="286.40,-229.80 313.60,-229.80"/>
        <lane id=":gneJ7_16_2" index="2" speed="13.89" length="27.20" shape="286.40,-226.60 313.60,-226.60"/>
    </edge>
    <edge id=":gneJ7_19" function="internal">
        <lane id=":gneJ7_19_0" index="0" speed="10.36" length="24.51" shape="286.40,-226.60 293.05,-225.65 297.80,-222.80 300.65,-218.05 301.60,-211.40"/>
    </edge>

    <edge id="-gneE0" from="gneJ1" to="gneJ0" priority="-1">
        <lane id="-gneE0_0" index="0" speed="13.89" length="176.00" shape="189.60,8.00 13.60,8.00"/>
        <lane id="-gneE0_1" index="1" speed="13.89" length="176.00" shape="189.60,4.80 13.60,4.80"/>
        <lane id="-gneE0_2" index="2" speed="13.89" length="176.00" shape="189.60,1.60 13.60,1.60"/>
    </edge>
    <edge id="-gneE1" from="gneJ2" to="gneJ0" priority="-1">
        <lane id="-gneE1_0" index="0" speed="13.89" length="47.80" shape="8.00,-61.40 8.00,-13.60"/>
        <lane id="-gneE1_1" index="1" speed="13.89" length="47.80" shape="4.80,-61.40 4.80,-13.60"/>
        <lane id="-gneE1_2" index="2" speed="13.89" length="47.80" shape="1.60,-61.40 1.60,-13.60"/>
    </edge>
    <edge id="-gneE10" from="gneJ8" to="gneJ0" priority="-1">
        <lane id="-gneE10_0" index="0" speed="13.89" length="26.40" shape="-8.00,40.00 -8.00,13.60"/>
        <lane id="-gneE10_1" index="1" speed="13.89" length="26.40" shape="-4.80,40.00 -4.80,13.60"/>
        <lane id="-gneE10_2" index="2" speed="13.89" length="26.40" shape="-1.60,40.00 -1.60,13.60"/>
    </edge>
    <edge id="-gneE11" from="gneJ9" to="gneJ0" priority="-1">
        <lane id="-gneE11_0" index="0" speed="13.89" length="26.40" shape="-40.00,-8.00 -13.60,-8.00"/>
        <lane id="-gneE11_1" index="1" speed="13.89" length="26.40" shape="-40.00,-4.80 -13.60,-4.80"/>
        <lane id="-gneE11_2" index="2" speed="13.89" length="26.40" shape="-40.00,-1.60 -13.60,-1.60"/>
    </edge>
    <edge id="-gneE12" from="gneJ10" to="gneJ1" priority="-1">
        <lane id="-gneE12_0" index="0" speed="13.89" length="26.40" shape="195.20,40.00 195.20,13.60"/>
        <lane id="-gneE12_1" index="1" speed="13.89" length="26.40" shape="198.40,40.00 198.40,13.60"/>
    </edge>
    <edge id="-gneE13" from="gneJ11" to="gneJ6" priority="-1">
        <lane id="-gneE13_0" index="0" speed="13.89" length="26.40" shape="340.00,4.80 313.60,4.80"/>
        <lane id="-gneE13_1" index="1" speed="13.89" length="26.40" shape="340.00,1.60 313.60,1.60"/>
    </edge>
    <edge id="-gneE14" from="gneJ12" to="gneJ7" priority="-1">
        <lane id="-gneE14_0" index="0" speed="13.89" length="26.40" shape="340.00,-217.00 313.60,-217.00"/>
        <lane id="-gneE14_1" index="1" speed="13.89" length="26.40" shape="340.00,-220.20 313.60,-220.20"/>
        <lane id="-gneE14_2" index="2" speed="13.89" length="26.40" shape="340.00,-223.40 313.60,-223.40"/>
    </edge>
    <edge id="-gneE15" from="gneJ13" to="gneJ7" priority="-1">
        <lane id="-gneE15_0" index="0" speed="13.89" length="26.40" shape="308.00,-265.00 308.00,-238.60"/>
        <lane id="-gneE15_1" index="1" speed="13.89" length="26.40" shape="304.80,-265.00 304.80,-238.60"/>
        <lane id="-gneE15_2" index="2" speed="13.89" length="26.40" shape="301.60,-265.00 301.60,-238.60"/>
    </edge>
    <edge id="-gneE16" from="gneJ14" to="gneJ5" priority="-1">
        <lane id="-gneE16_0" index="0" speed="13.89" length="26.40" shape="208.00,-265.00 208.00,-238.60"/>
        <lane id="-gneE16_1" index="1" speed="13.89" length="26.40" shape="204.80,-265.00 204.80,-238.60"/>
        <lane id="-gneE16_2" index="2" speed="13.89" length="26.40" shape="201.60,-265.00 201.60,-238.60"/>
    </edge>
    <edge id="-gneE17" from="gneJ15" to="gneJ4" priority="-1">
        <lane id="-gneE17_0" index="0" speed="13.89" length="26.40" shape="-40.00,-233.00 -13.60,-233.00"/>
        <lane id="-gneE17_1" index="1" speed="13.89" length="26.40" shape="-40.00,-229.80 -13.60,-229.80"/>
        <lane id="-gneE17_2" index="2" speed="13.89" length="26.40" shape="-40.00,-226.60 -13.60,-226.60"/>
    </edge>
    <edge id="-gneE18" from="gneJ16" to="gneJ4" priority="-1">
        <lane id="-gneE18_0" index="0" speed="13.89" length="26.40" shape="8.00,-265.00 8.00,-238.60"/>
        <lane id="-gneE18_1" index="1" speed="13.89" length="26.40" shape="4.80,-265.00 4.80,-238.60"/>
        <lane id="-gneE18_2" index="2" speed="13.89" length="26.40" shape="1.60,-265.00 1.60,-238.60"/>
    </edge>
    <edge id="-gneE19" from="gneJ17" to="gneJ2" priority="-1">
        <lane id="-gneE19_0" index="0" speed="13.89" length="26.40" shape="-40.00,-83.00 -13.60,-83.00"/>
        <lane id="-gneE19_1" index="1" speed="13.89" length="26.40" shape="-40.00,-79.80 -13.60,-79.80"/>
        <lane id="-gneE19_2" index="2" speed="13.89" length="26.40" shape="-40.00,-76.60 -13.60,-76.60"/>
    </edge>
    <edge id="-gneE2" from="gneJ3" to="gneJ1" priority="-1">
        <lane id="-gneE2_0" index="0" speed="13.89" length="47.80" shape="204.80,-61.40 204.80,-13.60"/>
        <lane id="-gneE2_1" index="1" speed="13.89" length="47.80" shape="201.60,-61.40 201.60,-13.60"/>
    </edge>
    <edge id="-gneE3" from="gneJ3" to="gneJ2" priority="-1">
        <lane id="-gneE3_0" index="0" speed="13.89" length="176.00" shape="189.60,-67.00 13.60,-67.00"/>
        <lane id="-gneE3_1" index="1" speed="13.89" length="176.00" shape="189.60,-70.20 13.60,-70.20"/>
        <lane id="-gneE3_2" index="2" speed="13.89" length="176.00" shape="189.60,-73.40 13.60,-73.40"/>
    </edge>
    <edge id="-gneE4" from="gneJ4" to="gneJ2" priority="-1">
        <lane id="-gneE4_0" index="0" speed="13.89" length="122.80" shape="8.00,-211.40 8.00,-88.60"/>
        <lane id="-gneE4_1" index="1" speed="13.89" length="122.80" shape="4.80,-211.40 4.80,-88.60"/>
        <lane id="-gneE4_2" index="2" speed="13.89" length="122.80" shape="1.60,-211.40 1.60,-88.60"/>
    </edge>
    <edge id="-gneE5" from="gneJ5" to="gneJ3" priority="-1">
        <lane id="-gneE5_0" index="0" speed="13.89" length="122.80" shape="204.80,-211.40 204.80,-88.60"/>
        <lane id="-gneE5_1" index="1" speed="13.89" length="122.80" shape="201.60,-211.40 201.60,-88.60"/>
    </edge>
    <edge id="-gneE6" from="gneJ6" to="gneJ1" priority="-1">
        <lane id="-gneE6_0" index="0" speed="13.89" length="76.00" shape="286.40,4.80 210.40,4.80"/>
        <lane id="-gneE6_1" index="1" speed="13.89" length="76.00" shape="286.40,1.60 210.40,1.60"/>
    </edge>
    <edge id="-gneE7" from="gneJ7" to="gneJ6" priority="-1">
        <lane id="-gneE7_0" index="0" speed="13.89" length="201.00" shape="308.00,-211.40 308.00,-10.40"/>
        <lane id="-gneE7_1" index="1" speed="13.89" length="201.00" shape="304.80,-211.40 304.80,-10.40"/>
        <lane id="-gneE7_2" index="2" speed="13.89" length="201.00" shape="301.60,-211.40 301.60,-10.40"/>
    </edge>
    <edge id="-gneE8" from="gneJ5" to="gneJ7" priority="-1">
        <lane id="-gneE8_0" index="0" speed="13.89" length="72.80" shape="213.60,-233.00 286.40,-233.00"/>
        <lane id="-gneE8_1" index="1" speed="13.89" length="72.80" shape="213.60,-229.80 286.40,-229.80"/>
        <lane id="-gneE8_2" index="2" speed="13.89" length="72.80" shape="213.60,-226.60 286.40,-226.60"/>
    </edge>