<?xml version="1.0" encoding="UTF-8"?>

<!-- generated on 2023-08-13 20:33:36 by Eclipse SUMO jtrrouter Version 1.10.0
<configuration xmlns:xsi="http://www.w3.org/2001/XMLSchema-instance" xsi:noNamespaceSchemaLocation="http://sumo.dlr.de/xsd/jtrrouterConfiguration.xsd">

    <input>
        <net-file value="NonEudian.net.xml"/>
        <route-files value="input_flows.flows.xml"/>
        <turn-ratio-files value="turn.turns.xml"/>
    </input>

    <output>
        <output-file value="routes.rou.xml"/>
    </output>

    <processing>
        <no-internal-links value="true"/>
        <accept-all-destinations value="true"/>
    </processing>

</configuration>
-->

<routes xmlns:xsi="http://www.w3.org/2001/XMLSchema-instance" xsi:noNamespaceSchemaLocation="http://sumo.dlr.de/xsd/routes_file.xsd">
    <vehicle id="0.0" depart="0.00">
        <route edges="-gneE10 gneE11"/>
    </vehicle>
    <vehicle id="1.0" depart="0.00">
        <route edges="-gneE11 gneE1 gneE19"/>
    </vehicle>
    <vehicle id="2.0" depart="0.00">
        <route edges="-gneE19 gneE3 gneE5 -gneE8 gneE14"/>
    </vehicle>
    <vehicle id="3.0" depart="0.00">
        <route edges="-gneE17 -gneE9 -gneE8 gneE14"/>
    </vehicle>
    <vehicle id="4.0" depart="0.00">
        <route edges="-gneE18 -gneE4 gneE19"/>
    </vehicle>
    <vehicle id="5.0" depart="0.00">
        <route edges="-gneE16 -gneE5 -gneE2 gneE12"/>
    </vehicle>
    <vehicle id="6.0" depart="0.00">
        <route edges="-gneE14 gneE15"/>
    </vehicle>
    <vehicle id="7.0" depart="0.00">
        <route edges="-gneE15 -gneE7 gneE13"/>
    </vehicle>
    <vehicle id="8.0" depart="0.00">
        <route edges="-gneE13 -gneE6 gneE12"/>
    </vehicle>
    <vehicle id="9.0" depart="0.00">
        <route edges="-gneE12 -gneE0 gneE11"/>
    </vehicle>
    <vehicle id="3.1" depart="50.00">
        <route edges="-gneE17 -gneE9 -gneE8 gneE15"/>
    </vehicle>
    <vehicle id="2.1" depart="66.67">
        <route edges="-gneE19 gneE3 gneE5 gneE16"/>
    </vehicle>
    <vehicle id="4.1" depart="80.00">
        <route edges="-gneE18 -gneE4 -gneE1 gneE0 gneE12"/>
    </vehicle>
    <vehicle id="0.1" depart="100.00">
        <route edges="-gneE10 gneE1 gneE19"/>
    </vehicle>
    <vehicle id="3.2" depart="100.00">
        <route edges="-gneE17 gneE18"/>
    </vehicle>
    <vehicle id="7.1" depart="100.00">
        <route edges="-gneE15 -gneE7 gneE13"/>
    </vehicle>
    <vehicle id="2.2" depart="133.33">
        <route edges="-gneE19 gneE3 -gneE2 -gneE0 gneE11"/>
    </vehicle>
    <vehicle id="5.1" depart="133.33">
        <route edges="-gneE16 gneE9 gneE17"/>
    </vehicle>
    <vehicle id="6.1" depart="133.33">
        <route edges="-gneE14 gneE15"/>
    </vehicle>
    <vehicle id="9.1" depart="133.33">
        <route edges="-gneE12 -gneE0 gneE11"/>
    </vehicle>
    <vehicle id="3.3" depart="150.00">
        <route edges="-gneE17 -gneE9 -gneE8 -gneE7 gneE13"/>
    </vehicle>
    <vehicle id="4.2" depart="160.00">
        <route edges="-gneE18 -gneE9 -gneE8 gneE14"/>
    </vehicle>
    <vehicle id="2.3" depart="200.00">
        <route edges="-gneE19 gneE4 gneE18"/>
    </vehicle>
    <vehicle id="0.2" depart="200.00">
        <route edges="-gneE10 gneE1 gneE4 gneE18"/>
    </vehicle>
    <vehicle id="1.1" depart="200.00">
        <route edges="-gneE11 gneE0 gneE6 gneE13"/>
    </vehicle>
    <vehicle id="3.4" depart="200.00">
        <route edges="-gneE17 -gneE9 -gneE5 -gneE2 gneE12"/>
    </vehicle>
    <vehicle id="7.2" depart="200.00">
        <route edges="-gneE15 -gneE7 gneE13"/>
    </vehicle>
    <vehicle id="8.1" depart="200.00">
        <route edges="-gneE13 -gneE6 -gneE0 gneE11"/>
    </vehicle>
    <vehicle id="4.3" depart="240.00">
        <route edges="-gneE18 -gneE4 -gneE1 gneE0 gneE6 gneE13"/>
    </vehicle>
    <vehicle id="3.5" depart="250.00">
        <route edges="-gneE17 -gneE9 -gneE5 -gneE2 gneE12"/>
    </vehicle>
    <vehicle id="2.4" depart="266.66">
        <route edges="-gneE19 gneE3 -gneE2 -gneE0 gneE11"/>
    </vehicle>
    <vehicle id="5.2" depart="266.67">
        <route edges="-gneE16 -gneE5 -gneE2 gneE12"/>
    </vehicle>
    <vehicle id="6.2" depart="266.67">
        <route edges="-gneE14 gneE8 gneE9 gneE17"/>
    </vehicle>
    <vehicle id="9.2" depart="266.67">
        <route edges="-gneE12 gneE2 -gneE3 gneE4 -gneE9 -gneE8 -gneE7 gneE13"/>
    </vehicle>
    <vehicle id="0.3" depart="300.00">
        <route edges="-gneE10 gneE1 gneE4 gneE18"/>
    </vehicle>
    <vehicle id="3.6" depart="300.00">
        <route edges="-gneE17 -gneE9 -gneE8 gneE14"/>
    </vehicle>
    <vehicle id="7.3" depart="300.00">
        <route edges="-gneE15 gneE8 gneE9 gneE18"/>
    </vehicle>
    <vehicle id="4.4" depart="320.00">
        <route edges="-gneE18 -gneE4 -gneE1 gneE10"/>
    </vehicle>
    <vehicle id="2.5" depart="333.33">
        <route edges="-gneE19 gneE3 -gneE2 gneE12"/>
    </vehicle>
    <vehicle id="3.7" depart="350.00">
        <route edges="-gneE17 -gneE9 -gneE8 gneE14"/>
    </vehicle>
    <vehicle id="2.6" depart="400.00">
        <route edges="-gneE19 gneE3 -gneE2 gneE12"/>
    </vehicle>
    <vehicle id="5.3" depart="400.00">
        <route edges="-gneE16 -gneE5 -gneE3 gneE19"/>
    </vehicle>
    <vehicle id="6.3" depart="400.00">
        <route edges="-gneE14 gneE8 -gneE5 -gneE2 gneE12"/>
    </vehicle>
    <vehicle id="9.3" depart="400.00">
        <route edges="-gneE12 gneE6 gneE7 gneE14"/>
    </vehicle>
    <vehicle id="0.4" depart="400.00">
        <route edges="-gneE10 gneE11"/>
    </vehicle>
    <vehicle id="1.2" depart="400.00">
        <route edges="-gneE11 gneE0 gneE6 gneE7 gneE15"/>
    </vehicle>
    <vehicle id="3.8" depart="400.00">
        <route edges="-gneE17 -gneE9 -gneE8 gneE14"/>
    </vehicle>
    <vehicle id="4.5" depart="400.00">
        <route edges="-gneE18 -gneE4 -gneE1 gneE0 gneE6 gneE7 gneE15"/>
    </vehicle>
    <vehicle id="7.4" depart="400.00">
        <route edges="-gneE15 gneE8 gneE9 -gneE4 gneE3 gneE5 gneE16"/>
    </vehicle>
    <vehicle id="8.2" depart="400.00">
        <route edges="-gneE13 gneE7 gneE15"/>
    </vehicle>
    <vehicle id="3.9" depart="450.00">
        <route edges="-gneE17 -gneE9 -gneE8 gneE14"/>
    </vehicle>
    <vehicle id="2.7" depart="466.66">
        <route edges="-gneE19 gneE3 -gneE2 gneE12"/>
    </vehicle>
    <vehicle id="4.6" depart="480.00">
        <route edges="-gneE18 gneE17"/>
    </vehicle>
    <vehicle id="0.5" depart="500.00">
        <route edges="-gneE10 gneE0 gneE2 gneE5 gneE16"/>
    </vehicle>
    <vehicle id="3.10" depart="500.00">
        <route edges="-gneE17 -gneE4 gneE3 gneE5 gneE16"/>
    </vehicle>
    <vehicle id="7.5" depart="500.00">
        <route edges="-gneE15 gneE8 gneE9 gneE18"/>
    </vehicle>
    <vehicle id="2.8" depart="533.33">
        <route edges="-gneE19 gneE3 gneE5 gneE9 gneE17"/>
    </vehicle>
    <vehicle id="5.4" depart="533.33">
        <route edges="-gneE16 -gneE5 -gneE2 gneE12"/>
    </vehicle>
    <vehicle id="6.4" depart="533.33">
        <route edges="-gneE14 gneE15"/>
    </vehicle>
    <vehicle id="9.4" depart="533.33">
        <route edges="-gneE12 gneE2 -gneE3 gneE19"/>
    </vehicle>
    <vehicle id="3.11" depart="550.00">
        <route edges="-gneE17 -gneE9 -gneE5 -gneE2 -gneE0 gneE11"/>
    </vehicle>
    <vehicle id="4.7" depart="560.00">
        <route edges="-gneE18 -gneE4 -gneE1 gneE10"/>
    </vehicle>
    <vehicle id="2.9" depart="599.99">
        <route edges="-gneE19 gneE3 -gneE2 gneE6 gneE7 gneE15"/>
    </vehicle>
    <vehicle id="0.6" depart="600.00">
        <route edges="-gneE10 gneE11"/>
    </vehicle>
    <vehicle id="1.3" depart="600.00">
        <route edges="-gneE11 gneE0 gneE12"/>
    </vehicle>
    <vehicle id="3.12" depart="600.00">
        <route edges="-gneE17 -gneE9 gneE16"/>
    </vehicle>
    <vehicle id="7.6" depart="600.00">
        <route edges="-gneE15 -gneE7 gneE13"/>
    </vehicle>
    <vehicle id="8.3" depart="600.00">
        <route edges="-gneE13 -gneE6 gneE2 -gneE3 -gneE1 gneE10"/>
    </vehicle>
    <vehicle id="4.8" depart="640.00">
        <route edges="-gneE18 -gneE4 gneE19"/>
    </vehicle>
    <vehicle id="3.13" depart="650.00">
        <route edges="-gneE17 -gneE9 -gneE8 -gneE7 gneE13"/>
    </vehicle>
    <vehicle id="2.10" depart="666.66">
        <route edges="-gneE19 -gneE1 gneE10"/>
    </vehicle>
    <vehicle id="5.5" depart="666.67">
        <route edges="-gneE16 -gneE5 -gneE2 gneE6 gneE7 gneE15"/>
    </vehicle>
    <vehicle id="6.5" depart="666.67">
        <route edges="-gneE14 gneE15"/>
    </vehicle>
    <vehicle id="9.5" depart="666.67">
        <route edges="-gneE12 gneE6 gneE7 gneE14"/>
    </vehicle>
    <vehicle id="0.7" depart="700.00">
        <route edges="-gneE10 gneE1 gneE19"/>
    </vehicle>
    <vehicle id="3.14" depart="700.00">
        <route edges="-gneE17 -gneE9 -gneE8 gneE14"/>
    </vehicle>
    <vehicle id="7.7" depart="700.00">
        <route edges="-gneE15 gneE8 gneE9 gneE17"/>
    </vehicle>
    <vehicle id="4.9" depart="720.00">
        <route edges="-gneE18 gneE17"/>
    </vehicle>
    <vehicle id="2.11" depart="733.33">
        <route edges="-gneE19 gneE3 -gneE2 gneE12"/>
    </vehicle>
    <vehicle id="3.15" depart="750.00">
        <route edges="-gneE17 -gneE9 -gneE8 gneE14"/>
    </vehicle>
    <vehicle id="2.12" depart="799.99">
        <route edges="-gneE19 gneE3 gneE5 gneE16"/>
    </vehicle>
    <vehicle id="5.6" depart="800.00">
        <route edges="-gneE16 gneE9 gneE17"/>
    </vehicle>
    <vehicle id="6.6" depart="800.00">
        <route edges="-gneE14 -gneE7 -gneE6 gneE12"/>
    </vehicle>
    <vehicle id="9.6" depart="800.00">
        <route edges="-gneE12 -gneE0 gneE1 gneE19"/>
    </vehicle>
    <vehicle id="0.8" depart="800.00">
        <route edges="-gneE10 gneE11"/>
    </vehicle>
    <vehicle id="1.4" depart="800.00">
        <route edges="-gneE11 gneE0 gneE2 -gneE3 -gneE1 gneE10"/>
    </vehicle>
    <vehicle id="3.16" depart="800.00">
        <route edges="-gneE17 -gneE9 -gneE8 gneE14"/>
    </vehicle>
    <vehicle id="4.10" depart="800.00">
        <route edges="-gneE18 -gneE4 gneE19"/>
    </vehicle>
    <vehicle id="7.8" depart="800.00">
        <route edges="-gneE15 gneE14"/>
    </vehicle>
    <vehicle id="8.4" depart="800.00">
        <route edges="-gneE13 -gneE6 -gneE0 gneE11"/>
    </vehicle>
    <vehicle id="3.17" depart="850.00">
        <route edges="-gneE17 gneE18"/>
    </vehicle>
    <vehicle id="2.13" depart="866.66">
        <route edges="-gneE19 gneE3 -gneE2 -gneE0 gneE10"/>
    </vehicle>
    <vehicle id="4.11" depart="880.00">
        <route edges="-gneE18 -gneE4 -gneE1 gneE11"/>
    </vehicle>
    <vehicle id="0.9" depart="900.00">
        <route edges="-gneE10 gneE11"/>
    </vehicle>
    <vehicle id="3.18" depart="900.00">
        <route edges="-gneE17 -gneE9 -gneE5 -gneE3 gneE19"/>
    </vehicle>
    <vehicle id="7.9" depart="900.00">
        <route edges="-gneE15 -gneE7 gneE13"/>
    </vehicle>
    <vehicle id="2.14" depart="933.32">
        <route edges="-gneE19 gneE4 gneE18"/>
    </vehicle>
    <vehicle id="5.7" depart="933.33">
        <route edges="-gneE16 gneE9 gneE17"/>
    </vehicle>
    <vehicle id="6.7" depart="933.33">
        <route edges="-gneE14 -gneE7 gneE13"/>
    </vehicle>
    <vehicle id="9.7" depart="933.33">
        <route edges="-gneE12 gneE2 -gneE3 gneE19"/>
    </vehicle>
    <vehicle id="3.19" depart="950.00">
        <route edges="-gneE17 -gneE9 gneE16"/>
    </vehicle>
    <vehicle id="4.12" depart="960.00">
        <route edges="-gneE18 -gneE4 gneE3 -gneE2 gneE6 gneE7 gneE15"/>
    </vehicle>
    <vehicle id="2.15" depart="999.99">
        <route edges="-gneE19 gneE3 gneE5 gneE9 gneE17"/>
    </vehicle>
    <vehicle id="0.10" depart="1000.00">
        <route edges="-gneE10 gneE1 gneE3 gneE5 gneE9 gneE17"/>
    </vehicle>
    <vehicle id="1.5" depart="1000.00">
        <route edges="-gneE11 gneE0 gneE12"/>
    </vehicle>
    <vehicle id="3.20" depart="1000.00">
        <route edges="-gneE17 -gneE9 gneE16"/>
    </vehicle>
    <vehicle id="7.10" depart="1000.00">
        <route edges="-gneE15 gneE8 gneE16"/>
    </vehicle>
    <vehicle id="8.5" depart="1000.00">
        <route edges="-gneE13 -gneE6 gneE2 -gneE3 -gneE1 gneE11"/>
    </vehicle>
    <vehicle id="4.13" depart="1040.00">
        <route edges="-gneE18 gneE17"/>
    </vehicle>
    <vehicle id="3.21" depart="1050.00">
        <route edges="-gneE17 -gneE4 -gneE1 gneE0 gneE12"/>
    </vehicle>
    <vehicle id="2.16" depart="1066.66">
        <route edges="-gneE19 -gneE1 gneE10"/>
    </vehicle>
    <vehicle id="5.8" depart="1066.66">
        <route edges="-gneE16 gneE9 gneE17"/>
    </vehicle>
    <vehicle id="6.8" depart="1066.66">
        <route edges="-gneE14 gneE8 gneE16"/>
    </vehicle>
    <vehicle id="9.8" depart="1066.66">
        <route edges="-gneE12 gneE6 gneE7 gneE15"/>
    </vehicle>
    <vehicle id="0.11" depart="1100.00">
        <route edges="-gneE10 gneE1 gneE4 gneE18"/>
    </vehicle>
    <vehicle id="3.22" depart="1100.00">
        <route edges="-gneE17 -gneE9 -gneE5 -gneE2 gneE12"/>
    </vehicle>
    <vehicle id="7.11" depart="1100.00">
        <route edges="-gneE15 -gneE7 -gneE6 -gneE0 gneE10"/>
    </vehicle>
    <vehicle id="4.14" depart="1120.00">
        <route edges="-gneE18 gneE17"/>
    </vehicle>
    <vehicle id="2.17" depart="1133.32">
        <route edges="-gneE19 gneE3 gneE5 gneE9 -gneE4 gneE19"/>
    </vehicle>
    <vehicle id="3.23" depart="1150.00">
        <route edges="-gneE17 -gneE9 -gneE5 -gneE2 gneE12"/>
    </vehicle>
    <vehicle id="2.18" depart="1199.99">
        <route edges="-gneE19 gneE4 gneE17"/>
    </vehicle>
    <vehicle id="5.9" depart="1200.00">
        <route edges="-gneE16 -gneE5 -gneE2 -gneE0 gneE11"/>
    </vehicle>
    <vehicle id="6.9" depart="1200.00">
        <route edges="-gneE14 gneE8 gneE9 gneE18"/>
    </vehicle>
    <vehicle id="9.9" depart="1200.00">
        <route edges="-gneE12 gneE6 gneE7 gneE15"/>
    </vehicle>
    <vehicle id="0.12" depart="1200.00">
        <route edges="-gneE10 gneE1 gneE19"/>
    </vehicle>
    <vehicle id="1.6" depart="1200.00">
        <route edges="-gneE11 gneE0 gneE6 gneE7 gneE15"/>
    </vehicle>
    <vehicle id="3.24" depart="1200.00">
        <route edges="-gneE17 gneE18"/>
    </vehicle>
    <vehicle id="4.15" depart="1200.00">
        <route edges="-gneE18 -gneE4 -gneE1 gneE0 gneE12"/>
    </vehicle>
    <vehicle id="7.12" depart="1200.00">
        <route edges="-gneE15 gneE14"/>
    </vehicle>
    <vehicle id="8.6" depart="1200.00">
        <route edges="-gneE13 gneE7 gneE14"/>
    </vehicle>
    <vehicle id="3.25" depart="1250.00">
        <route edges="-gneE17 -gneE4 -gneE1 gneE11"/>
    </vehicle>
    <vehicle id="2.19" depart="1266.65">
        <route edges="-gneE19 gneE4 gneE18"/>
    </vehicle>
    <vehicle id="4.16" depart="1280.00">
        <route edges="-gneE18 -gneE9 -gneE8 gneE14"/>
    </vehicle>
    <vehicle id="0.13" depart="1300.00">
        <route edges="-gneE10 gneE1 gneE4 gneE18"/>
    </vehicle>
    <vehicle id="3.26" depart="1300.00">
        <route edges="-gneE17 -gneE9 -gneE8 gneE14"/>
    </vehicle>
    <vehicle id="7.13" depart="1300.00">
        <route edges="-gneE15 -gneE7 gneE13"/>
    </vehicle>
    <vehicle id="2.20" depart="1333.32">
        <route edges="-gneE19 -gneE1 gneE10"/>
    </vehicle>
    <vehicle id="5.10" depart="1333.33">
        <route edges="-gneE16 -gneE8 gneE15"/>
    </vehicle>
    <vehicle id="6.10" depart="1333.33">
        <route edges="-gneE14 -gneE7 -gneE6 -gneE0 gneE11"/>
    </vehicle>
    <vehicle id="9.10" depart="1333.33">
        <route edges="-gneE12 gneE6 gneE13"/>
    </vehicle>
    <vehicle id="3.27" depart="1350.00">
        <route edges="-gneE17 -gneE9 -gneE8 -gneE7 -gneE6 gneE2 -gneE3 gneE4 gneE18"/>
    </vehicle>
    <vehicle id="4.17" depart="1360.00">
        <route edges="-gneE18 -gneE4 -gneE1 gneE11"/>
    </vehicle>
    <vehicle id="2.21" depart="1399.99">
        <route edges="-gneE19 gneE4 gneE18"/>
    </vehicle>
    <vehicle id="0.14" depart="1400.00">
        <route edges="-gneE10 gneE1 gneE4 gneE18"/>
    </vehicle>
    <vehicle id="1.7" depart="1400.00">
        <route edges="-gneE11 gneE10"/>
    </vehicle>
    <vehicle id="3.28" depart="1400.00">
        <route edges="-gneE17 gneE18"/>
    </vehicle>
    <vehicle id="7.14" depart="1400.00">
        <route edges="-gneE15 gneE14"/>
    </vehicle>
    <vehicle id="8.7" depart="1400.00">
        <route edges="-gneE13 -gneE6 gneE2 -gneE3 gneE4 -gneE9 -gneE8 gneE14"/>
    </vehicle>
    <vehicle id="4.18" depart="1440.00">
        <route edges="-gneE18 -gneE9 -gneE8 gneE15"/>
    </vehicle>
    <vehicle id="3.29" depart="1450.00">
        <route edges="-gneE17 -gneE9 -gneE5 -gneE2 gneE12"/>
    </vehicle>
    <vehicle id="2.22" depart="1466.65">
        <route edges="-gneE19 gneE3 gneE5 -gneE8 gneE14"/>
    </vehicle>
    <vehicle id="5.11" depart="1466.66">
        <route edges="-gneE16 -gneE8 gneE14"/>
    </vehicle>
    <vehicle id="6.11" depart="1466.66">
        <route edges="-gneE14 gneE8 gneE9 gneE18"/>
    </vehicle>
    <vehicle id="9.11" depart="1466.66">
        <route edges="-gneE12 gneE2 -gneE3 gneE19"/>
    </vehicle>
    <vehicle id="0.15" depart="1500.00">
        <route edges="-gneE10 gneE1 gneE19"/>
    </vehicle>
    <vehicle id="3.30" depart="1500.00">
        <route edges="-gneE17 -gneE9 -gneE8 gneE14"/>
    </vehicle>
    <vehicle id="7.15" depart="1500.00">
        <route edges="-gneE15 -gneE7 gneE13"/>
    </vehicle>
    <vehicle id="4.19" depart="1520.00">
        <route edges="-gneE18 -gneE4 -gneE1 gneE10"/>
    </vehicle>
    <vehicle id="2.23" depart="1533.32">
        <route edges="-gneE19 gneE3 gneE5 gneE16"/>
    </vehicle>
    <vehicle id="3.31" depart="1550.00">
        <route edges="-gneE17 -gneE4 -gneE1 gneE10"/>
    </vehicle>
    <vehicle id="2.24" depart="1599.98">
        <route edges="-gneE19 gneE3 -gneE2 gneE6 gneE7 gneE14"/>
    </vehicle>
    <vehicle id="5.12" depart="1600.00">
        <route edges="-gneE16 -gneE5 -gneE2 gneE6 gneE7 gneE15"/>
    </vehicle>
    <vehicle id="6.12" depart="1600.00">
        <route edges="-gneE14 gneE8 gneE9 -gneE4 -gneE1 gneE11"/>
    </vehicle>
    <vehicle id="9.12" depart="1600.00">
        <route edges="-gneE12 gneE6 gneE7 gneE15"/>
    </vehicle>
    <vehicle id="0.16" depart="1600.00">
        <route edges="-gneE10 gneE1 gneE4 -gneE9 -gneE8 gneE14"/>
    </vehicle>
    <vehicle id="1.8" depart="1600.00">
        <route edges="-gneE11 gneE10"/>
    </vehicle>
    <vehicle id="3.32" depart="1600.00">
        <route edges="-gneE17 -gneE4 gneE19"/>
    </vehicle>
    <vehicle id="4.20" depart="1600.00">
        <route edges="-gneE18 -gneE4 gneE3 -gneE2 gneE12"/>
    </vehicle>
    <vehicle id="7.16" depart="1600.00">
        <route edges="-gneE15 -gneE7 gneE13"/>
    </vehicle>
    <vehicle id="8.8" depart="1600.00">
        <route edges="-gneE13 gneE7 gneE14"/>
    </vehicle>
    <vehicle id="3.33" depart="1650.00">
        <route edges="-gneE17 -gneE4 -gneE1 gneE0 gneE6 gneE7 gneE8 gneE9 gneE17"/>
    </vehicle>
    <vehicle id="2.25" depart="1666.65">
        <route edges="-gneE19 gneE3 -gneE2 gneE12"/>
    </vehicle>
    <vehicle id="4.21" depart="1680.00">
        <route edges="-gneE18 -gneE9 -gneE8 -gneE7 gneE13"/>
    </vehicle>
    <vehicle id="0.17" depart="1700.00">
        <route edges="-gneE10 gneE0 gneE6 gneE7 gneE15"/>
    </vehicle>
    <vehicle id="3.34" depart="1700.00">
        <route edges="-gneE17 -gneE9 -gneE5 -gneE2 gneE12"/>
    </vehicle>
    <vehicle id="7.17" depart="1700.00">
        <route edges="-gneE15 -gneE7 -gneE6 gneE12"/>
    </vehicle>
    <vehicle id="2.26" depart="1733.32">
        <route edges="-gneE19 gneE3 -gneE2 -gneE0 gneE11"/>
    </vehicle>
    <vehicle id="5.13" depart="1733.33">
        <route edges="-gneE16 -gneE5 -gneE2 -gneE0 gneE11"/>
    </vehicle>
    <vehicle id="6.13" depart="1733.33">
        <route edges="-gneE14 gneE8 gneE16"/>
    </vehicle>
    <vehicle id="9.13" depart="1733.33">
        <route edges="-gneE12 gneE2 -gneE3 gneE19"/>
    </vehicle>
    <vehicle id="3.35" depart="1750.00">
        <route edges="-gneE17 -gneE9 -gneE8 gneE14"/>
    </vehicle>
    <vehicle id="4.22" depart="1760.00">
        <route edges="-gneE18 -gneE9 gneE16"/>
    </vehicle>
    <vehicle id="2.27" depart="1799.98">
        <route edges="-gneE19 -gneE1 gneE10"/>
    </vehicle>
    <vehicle id="0.18" depart="1800.00">
        <route edges="-gneE10 gneE1 gneE4 gneE17"/>
    </vehicle>
    <vehicle id="1.9" depart="1800.00">
        <route edges="-gneE11 gneE0 gneE6 gneE7 gneE14"/>
    </vehicle>
    <vehicle id="3.36" depart="1800.00">
        <route edges="-gneE17 -gneE9 -gneE8 gneE15"/>
    </vehicle>
    <vehicle id="7.18" depart="1800.00">
        <route edges="-gneE15 -gneE7 gneE13"/>
    </vehicle>
    <vehicle id="8.9" depart="1800.00">
        <route edges="-gneE13 gneE7 gneE15"/>
    </vehicle>
    <vehicle id="4.23" depart="1840.00">
        <route edges="-gneE18 -gneE9 -gneE8 gneE14"/>
    </vehicle>
    <vehicle id="3.37" depart="1850.00">
        <route edges="-gneE17 -gneE9 -gneE8 gneE14"/>
    </vehicle>
    <vehicle id="2.28" depart="1866.65">
        <route edges="-gneE19 -gneE1 gneE10"/>
    </vehicle>
    <vehicle id="5.14" depart="1866.66">
        <route edges="-gneE16 gneE9 gneE17"/>
    </vehicle>
    <vehicle id="6.14" depart="1866.66">
        <route edges="-gneE14 gneE8 gneE9 gneE17"/>
    </vehicle>
    <vehicle id="9.14" depart="1866.66">
        <route edges="-gneE12 -gneE0 gneE11"/>
    </vehicle>
    <vehicle id="0.19" depart="1900.00">
        <route edges="-gneE10 gneE1 gneE4 gneE18"/>
    </vehicle>
    <vehicle id="3.38" depart="1900.00">
        <route edges="-gneE17 -gneE9 -gneE8 gneE14"/>
    </vehicle>
    <vehicle id="7.19" depart="1900.00">
        <route edges="-gneE15 gneE14"/>
    </vehicle>
    <vehicle id="4.24" depart="1920.00">
        <route edges="-gneE18 -gneE4 -gneE1 gneE0 gneE6 gneE7 gneE8 gneE9 gneE18"/>
    </vehicle>
    <vehicle id="2.29" depart="1933.31">
        <route edges="-gneE19 gneE4 gneE18"/>
    </vehicle>
    <vehicle id="3.39" depart="1950.00">
        <route edges="-gneE17 -gneE9 -gneE8 gneE14"/>
    </vehicle>
    <vehicle id="2.30" depart="1999.98">
        <route edges="-gneE19 gneE4 gneE18"/>
    </vehicle>
    <vehicle id="5.15" depart="2000.00">
        <route edges="-gneE16 gneE9 -gneE4 gneE3 -gneE2 -gneE0 gneE1 gneE4 gneE17"/>
    </vehicle>
    <vehicle id="6.15" depart="2000.00">
        <route edges="-gneE14 -gneE7 gneE13"/>
    </vehicle>
    <vehicle id="9.15" depart="2000.00">
        <route edges="-gneE12 gneE2 -gneE3 gneE19"/>
    </vehicle>
    <vehicle id="0.20" depart="2000.00">
        <route edges="-gneE10 gneE1 gneE3 gneE5 gneE9 gneE18"/>
    </vehicle>
    <vehicle id="1.10" depart="2000.00">
        <route edges="-gneE11 gneE1 gneE3 gneE5 -gneE8 gneE14"/>
    </vehicle>
    <vehicle id="3.40" depart="2000.00">
        <route edges="-gneE17 gneE18"/>
    </vehicle>
    <vehicle id="4.25" depart="2000.00">
        <route edges="-gneE18 -gneE4 -gneE1 gneE10"/>
    </vehicle>
    <vehicle id="7.20" depart="2000.00">
        <route edges="-gneE15 -gneE7 gneE13"/>
    </vehicle>
    <vehicle id="8.10" depart="2000.00">
        <route edges="-gneE13 -gneE6 -gneE0 gneE11"/>
    </vehicle>
    <vehicle id="3.41" depart="2050.00">
        <route edges="-gneE17 gneE18"/>
    </vehicle>
    <vehicle id="2.31" depart="2066.65">
        <route edges="-gneE19 gneE3 gneE5 gneE16"/>
    </vehicle>
    <vehicle id="4.26" depart="2080.00">
        <route edges="-gneE18 -gneE4 gneE19"/>
    </vehicle>
    <vehicle id="0.21" depart="2100.00">
        <route edges="-gneE10 gneE1 gneE4 gneE18"/>
    </vehicle>
    <vehicle id="3.42" depart="2100.00">
        <route edges="-gneE17 gneE18"/>
    </vehicle>
    <vehicle id="7.21" depart="2100.00">
        <route edges="-gneE15 -gneE7 gneE13"/>
    </vehicle>
    <vehicle id="2.32" depart="2133.31">
        <route edges="-gneE19 gneE3 -gneE2 gneE6 gneE7 gneE15"/>
    </vehicle>
    <vehicle id="5.16" depart="2133.33">
        <route edges="-gneE16 -gneE5 -gneE2 gneE12"/>
    </vehicle>
    <vehicle id="6.16" depart="2133.33">
        <route edges="-gneE14 -gneE7 -gneE6 gneE2 -gneE3 gneE19"/>
    </vehicle>
    <vehicle id="9.16" depart="2133.33">
        <route edges="-gneE12 gneE6 gneE7 gneE14"/>
    </vehicle>
    <vehicle id="3.43" depart="2150.00">
        <route edges="-gneE17 -gneE4 -gneE1 gneE10"/>
    </vehicle>
    <vehicle id="4.27" depart="2160.00">
        <route edges="-gneE18 -gneE4 gneE3 gneE5 gneE16"/>
    </vehicle>
    <vehicle id="2.33" depart="2199.98">
        <route edges="-gneE19 gneE4 -gneE9 gneE16"/>
    </vehicle>
    <vehicle id="0.22" depart="2200.00">
        <route edges="-gneE10 gneE11"/>
    </vehicle>
    <vehicle id="1.11" depart="2200.00">
        <route edges="-gneE11 gneE10"/>
    </vehicle>
    <vehicle id="3.44" depart="2200.00">
        <route edges="-gneE17 -gneE9 gneE16"/>
    </vehicle>
    <vehicle id="7.22" depart="2200.00">
        <route edges="-gneE15 gneE14"/>
    </vehicle>
    <vehicle id="8.11" depart="2200.00">
        <route edges="-gneE13 -gneE6 gneE2 -gneE3 gneE19"/>
    </vehicle>
    <vehicle id="4.28" depart="2240.00">
        <route edges="-gneE18 -gneE4 -gneE1 gneE10"/>
    </vehicle>
    <vehicle id="3.45" depart="2250.00">
        <route edges="-gneE17 -gneE9 -gneE8 gneE14"/>
    </vehicle>
    <vehicle id="2.34" depart="2266.64">
        <route edges="-gneE19 gneE3 -gneE2 gneE12"/>
    </vehicle>
    <vehicle id="5.17" depart="2266.66">
        <route edges="-gneE16 -gneE5 -gneE2 gneE12"/>
    </vehicle>
    <vehicle id="6.17" depart="2266.66">
        <route edges="-gneE14 gneE8 -gneE5 -gneE3 gneE4 gneE18"/>
    </vehicle>
    <vehicle id="9.17" depart="2266.66">
        <route edges="-gneE12 gneE2 -gneE3 gneE19"/>
    </vehicle>
    <vehicle id="0.23" depart="2300.00">
        <route edges="-gneE10 gneE1 gneE3 gneE5 gneE16"/>
    </vehicle>
    <vehicle id="3.46" depart="2300.00">
        <route edges="-gneE17 -gneE9 -gneE8 gneE14"/>
    </vehicle>
    <vehicle id="7.23" depart="2300.00">
        <route edges="-gneE15 -gneE7 gneE13"/>
    </vehicle>
    <vehicle id="4.29" depart="2320.00">
        <route edges="-gneE18 gneE17"/>
    </vehicle>
    <vehicle id="2.35" depart="2333.31">
        <route edges="-gneE19 -gneE1 gneE0 gneE6 gneE7 gneE15"/>
    </vehicle>
    <vehicle id="3.47" depart="2350.00">
        <route edges="-gneE17 -gneE9 -gneE8 gneE14"/>
    </vehicle>
    <vehicle id="2.36" depart="2399.98">
        <route edges="-gneE19 gneE4 gneE18"/>
    </vehicle>
    <vehicle id="5.18" depart="2399.99">
        <route edges="-gneE16 gneE9 -gneE4 -gneE1 gneE10"/>
    </vehicle>
    <vehicle id="6.18" depart="2399.99">
        <route edges="-gneE14 gneE8 gneE9 gneE17"/>
    </vehicle>
    <vehicle id="9.18" depart="2399.99">
        <route edges="-gneE12 gneE6 gneE13"/>
    </vehicle>
    <vehicle id="0.24" depart="2400.00">
        <route edges="-gneE10 gneE1 gneE4 gneE17"/>
    </vehicle>
    <vehicle id="1.12" depart="2400.00">
        <route edges="-gneE11 gneE0 gneE6 gneE13"/>
    </vehicle>
    <vehicle id="3.48" depart="2400.00">
        <route edges="-gneE17 -gneE4 gneE19"/>
    </vehicle>
    <vehicle id="4.30" depart="2400.00">
        <route edges="-gneE18 gneE17"/>
    </vehicle>
    <vehicle id="7.24" depart="2400.00">
        <route edges="-gneE15 -gneE7 gneE13"/>
    </vehicle>
    <vehicle id="8.12" depart="2400.00">
        <route edges="-gneE13 -gneE6 -gneE0 gneE11"/>
    </vehicle>
    <vehicle id="3.49" depart="2450.00">
        <route edges="-gneE17 -gneE9 -gneE8 gneE14"/>
    </vehicle>
    <vehicle id="2.37" depart="2466.64">
        <route edges="-gneE19 -gneE1 gneE11"/>
    </vehicle>
    <vehicle id="4.31" depart="2480.00">
        <route edges="-gneE18 -gneE9 -gneE8 gneE14"/>
    </vehicle>
    <vehicle id="0.25" depart="2500.00">
        <route edges="-gneE10 gneE1 gneE4 gneE18"/>
    </vehicle>
    <vehicle id="3.50" depart="2500.00">
        <route edges="-gneE17 -gneE4 -gneE1 gneE0 gneE12"/>
    </vehicle>
    <vehicle id="7.25" depart="2500.00">
        <route edges="-gneE15 gneE8 gneE9 gneE17"/>
    </vehicle>
    <vehicle id="2.38" depart="2533.31">
        <route edges="-gneE19 gneE3 gneE5 gneE9 gneE18"/>
    </vehicle>
    <vehicle id="5.19" depart="2533.33">
        <route edges="-gneE16 -gneE5 -gneE2 gneE12"/>
    </vehicle>
    <vehicle id="6.19" depart="2533.33">
        <route edges="-gneE14 gneE8 gneE16"/>
    </vehicle>
    <vehicle id="9.19" depart="2533.33">
        <route edges="-gneE12 gneE6 gneE13"/>
    </vehicle>
    <vehicle id="3.51" depart="2550.00">
        <route edges="-gneE17 -gneE9 -gneE5 -gneE2 gneE12"/>
    </vehicle>
    <vehicle id="4.32" depart="2560.00">
        <route edges="-gneE18 -gneE9 gneE16"/>
    </vehicle>
    <vehicle id="2.39" depart="2599.97">
        <route edges="-gneE19 -gneE1 gneE10"/>
    </vehicle>